Global frequency set at 1000000000000 ticks per second
simpleCache
DEBUG COH Protocol Name in XML header: MSI
FSM path: /home/gem5/gem5_new/ext/CMSpec/CMSpec/Protocols_FSM/
gem5 Simulator System.  https://www.gem5.org
gem5 is copyrighted software; use the --copyright option for details.

gem5 version 22.1.0.0
gem5 compiled May 28 2023 21:53:05
gem5 started May 28 2023 21:56:03
gem5 executing on gem5-VirtualBox, pid 277580
command line: /home/gem5/gem5_new/build_org/X86/gem5.debug /home/gem5/gem5_new/configs/learning_gem5/part2/simple_cache.py --l2_size=1MB --l1d_size=128kB

Beginning simulation!
response[xxx] = 0x485ed18949ed3148(0x190)
response[2] = 0x485ed18949ed3148(0x190)
response[3] = 0x485ed18949ed3148(0x190)
response[xxx] = 0x1(0x94dc0)
response[5] = 0x485ed18949ed3148(0x190)
response[6] = 0x5450f0e48348e289(0x198)
response[7] = 0x5450f0e48348e289(0x198)
response[8] = 0x5450f0e48348e289(0x198)
response[10] = 0x5450f0e48348e289(0x198)
response[11] = 0x7fffffffedb8(0x94db0)
response[12] = 0x480040a060c0c749(0x1a0)
response[13] = 0x480040a060c0c749(0x1a0)
response[14] = 0xc74800409ff0c1c7(0x1a8)
response[15] = 0xc74800409ff0c1c7(0x1a8)
response[16] = 0x9846e800400274c7(0x1b0)
response[17] = 0x9846e800400274c7(0x1b0)
response[18] = 0x8ec834890f40000(0x1b8)
response[19] = 0x4001ba(0x94da8)
response[xxx] = 0xcf894dc663485741(0x9a00)
response[21] = 0x0(0x94da0)
response[22] = 0xcf894dc663485741(0x9a00)
response[23] = 0xcf894dc663485741(0x9a00)
response[24] = 0x415541d689495641(0x9a08)
response[25] = 0x0(0x94d98)
response[26] = 0x415541d689495641(0x9a08)
response[27] = 0x415541d689495641(0x9a08)
response[28] = 0x0(0x94d90)
response[29] = 0x415541d689495641(0x9a08)
response[30] = 0x814853555441f589(0x9a10)
response[31] = 0x814853555441f589(0x9a10)
response[32] = 0x0(0x94d88)
response[33] = 0x814853555441f589(0x9a10)
response[34] = 0x0(0x94d80)
response[35] = 0x814853555441f589(0x9a10)
response[37] = 0x814853555441f589(0x9a10)
response[38] = 0x7c8948000001f8ec(0x9a18)
response[39] = 0x7c8948000001f8ec(0x9a18)
response[40] = 0xb808c27c8d481824(0x9a20)
response[42] = 0xb808c27c8d481824(0x9a20)
response[43] = 0xb808c27c8d481824(0x9a20)
response[44] = 0x8548d23100000000(0x9a28)
response[45] = 0x8548d23100000000(0x9a28)
response[46] = 0x8548d23100000000(0x9a28)
response[47] = 0x894c10244c8948c0(0x9a30)
response[48] = 0x894c10244c8948c0(0x9a30)
response[49] = 0x409ff0(0x94b90)
response[50] = 0x894c10244c8948c0(0x9a30)
response[51] = 0x1d8b441274082444(0x9a38)
response[52] = 0x40a060(0x94b88)
response[53] = 0x1d8b441274082444(0x9a38)
response[xxx] = 0x48d0440fdb854500(0x9a48)
response[55] = 0x890000023024848b(0x9a50)
response[56] = 0x7fffffffedb8(0x94db0)
response[57] = 0x890000023024848b(0x9a50)
response[58] = 0x3d894800176d5315(0x9a58)
response[60] = 0x3d894800176d5315(0x9a58)
response[61] = 0x8d05894800189394(0x9a60)
response[63] = 0x8d05894800189394(0x9a60)
response[64] = 0x906690666600175f(0x9a68)
response[66] = 0x906690666600175f(0x9a68)
response[67] = 0x906690666600175f(0x9a68)
response[68] = 0x4808c78348078b48(0x9a70)
response[69] = 0x0(0x94dd8)
response[70] = 0x4808c78348078b48(0x9a70)
response[71] = 0x4808c78348078b48(0x9a70)
response[72] = 0xc07fe8f475c085(0x9a78)
response[73] = 0xc07fe8f475c085(0x9a78)
response[74] = 0xc07fe8f475c085(0x9a78)
response[xxx] = 0x176d28158b4400(0x9a80)
response[xxx] = 0x31c931d231078b48(0x15b00)
response[78] = 0x21(0x94de0)
response[79] = 0x31c931d231078b48(0x15b00)
response[80] = 0x31c931d231078b48(0x15b00)
response[81] = 0x31c931d231078b48(0x15b00)
response[82] = 0x90664774c08548f6(0x15b08)
response[83] = 0x90664774c08548f6(0x15b08)
response[84] = 0x90664774c08548f6(0x15b08)
response[85] = 0x90664774c08548f6(0x15b08)
response[86] = 0x14f8834803e88348(0x15b10)
response[87] = 0x14f8834803e88348(0x15b10)
response[88] = 0x45eb80c524ff2677(0x15b18)
response[xxx] = 0x48078b4810c78348(0x15b40)
response[90] = 0x48078b4810c78348(0x15b40)
response[91] = 0x10(0x94df0)
response[92] = 0x48078b4810c78348(0x15b40)
response[93] = 0xf0ffa83c475c085(0x15b48)
response[94] = 0xf0ffa83c475c085(0x15b48)
response[95] = 0x14f8834803e88348(0x15b10)
response[96] = 0x14f8834803e88348(0x15b10)
response[97] = 0x45eb80c524ff2677(0x15b18)
response[98] = 0x45eb80c524ff2677(0x15b18)
response[99] = 0xffffba08478b4800(0x15b20)
response[xxx] = 0x415b6f(0x5ebe8)
response[101] = 0x48ddeba375c08548(0x15b68)
response[102] = 0x4810c7834808478b(0x15b70)
response[103] = 0x78bfbff(0x94df8)
response[104] = 0x4810c7834808478b(0x15b70)
response[105] = 0x4810c7834808478b(0x15b70)
response[106] = 0x8b480017d2f20589(0x15b78)
response[108] = 0x8b480017d2f20589(0x15b78)
response[xxx] = 0xc4eb8a75c0854807(0x15b80)
response[xxx] = 0x6(0x94e00)
response[111] = 0xc4eb8a75c0854807(0x15b80)
response[112] = 0xc4eb8a75c0854807(0x15b80)
response[113] = 0x14f8834803e88348(0x15b10)
response[114] = 0x14f8834803e88348(0x15b10)
response[115] = 0x45eb80c524ff2677(0x15b18)
response[116] = 0x45eb80c524ff2677(0x15b18)
response[117] = 0xffffba08478b4800(0x15b20)
response[xxx] = 0x415bee(0x5eb98)
response[xxx] = 0x8b48ffffff5ee9ff(0x15be8)
response[120] = 0x894810c783480847(0x15bf0)
response[xxx] = 0x1000(0x94e08)
response[122] = 0x894810c783480847(0x15bf0)
response[123] = 0x894810c783480847(0x15bf0)
response[124] = 0x78b480017d94305(0x15bf8)
response[126] = 0x78b480017d94305(0x15bf8)
response[xxx] = 0x11(0x94e10)
response[xxx] = 0xffff07850fc08548(0x15c00)
response[129] = 0xffff07850fc08548(0x15c00)
response[130] = 0x8b48ffffff3ee9ff(0x15c08)
response[xxx] = 0x14f8834803e88348(0x15b10)
response[132] = 0x14f8834803e88348(0x15b10)
response[133] = 0x45eb80c524ff2677(0x15b18)
response[134] = 0x45eb80c524ff2677(0x15b18)
response[135] = 0xffffba08478b4800(0x15b20)
response[xxx] = 0x415b57(0x5ebf0)
response[xxx] = 0x48c3f3000000f984(0x15b50)
response[138] = 0x8910c7834808478b(0x15b58)
response[xxx] = 0x64(0x94e18)
response[140] = 0x8910c7834808478b(0x15b58)
response[141] = 0x8910c7834808478b(0x15b58)
response[142] = 0x78b480017d98b05(0x15b60)
response[144] = 0x78b480017d98b05(0x15b60)
response[145] = 0x3(0x94e20)
response[146] = 0x48ddeba375c08548(0x15b68)
response[147] = 0x48ddeba375c08548(0x15b68)
response[148] = 0x14f8834803e88348(0x15b10)
response[149] = 0x14f8834803e88348(0x15b10)
response[150] = 0x45eb80c524ff2677(0x15b18)
response[151] = 0x45eb80c524ff2677(0x15b18)
response[152] = 0xffffba08478b4800(0x15b20)
response[153] = 0x415c0e(0x5eb80)
response[154] = 0x8b48ffffff3ee9ff(0x15c08)
response[155] = 0x894810c783480847(0x15c10)
response[156] = 0x400040(0x94e28)
response[157] = 0x894810c783480847(0x15c10)
response[158] = 0x894810c783480847(0x15c10)
response[159] = 0x78b480017d8c305(0x15c18)
response[160] = 0x400040(0x934e0)
response[161] = 0x78b480017d8c305(0x15c18)
response[162] = 0x4(0x94e30)
response[163] = 0xfffee7850fc08548(0x15c20)
response[164] = 0xfffee7850fc08548(0x15c20)
response[165] = 0x8b48ffffff1ee9ff(0x15c28)
response[166] = 0x14f8834803e88348(0x15b10)
response[167] = 0x14f8834803e88348(0x15b10)
response[168] = 0x45eb80c524ff2677(0x15b18)
response[169] = 0x45eb80c524ff2677(0x15b18)
response[170] = 0xffffba08478b4800(0x15b20)
response[171] = 0x415b40(0x5eb88)
response[172] = 0x48078b4810c78348(0x15b40)
response[173] = 0x48078b4810c78348(0x15b40)
response[xxx] = 0x5(0x94e40)
response[175] = 0x48078b4810c78348(0x15b40)
response[176] = 0xf0ffa83c475c085(0x15b48)
response[177] = 0xf0ffa83c475c085(0x15b48)
response[178] = 0x14f8834803e88348(0x15b10)
response[179] = 0x14f8834803e88348(0x15b10)
response[180] = 0x45eb80c524ff2677(0x15b18)
response[181] = 0x45eb80c524ff2677(0x15b18)
response[182] = 0xffffba08478b4800(0x15b20)
response[183] = 0x415c2e(0x5eb90)
response[184] = 0x8b48ffffff1ee9ff(0x15c28)
response[185] = 0x894810c783480847(0x15c30)
response[186] = 0x5(0x94e48)
response[187] = 0x894810c783480847(0x15c30)
response[188] = 0x894810c783480847(0x15c30)
response[189] = 0x78b480017d8d305(0x15c38)
response[191] = 0x78b480017d8d305(0x15c38)
response[192] = 0x7(0x94e50)
response[xxx] = 0xfffec7850fc08548(0x15c40)
response[194] = 0xfffec7850fc08548(0x15c40)
response[195] = 0xc985fffffefee9ff(0x15c48)
response[196] = 0x14f8834803e88348(0x15b10)
response[197] = 0x14f8834803e88348(0x15b10)
response[198] = 0x45eb80c524ff2677(0x15b18)
response[199] = 0x45eb80c524ff2677(0x15b18)
response[200] = 0xffffba08478b4800(0x15b20)
response[201] = 0x415b40(0x5eba0)
response[202] = 0x48078b4810c78348(0x15b40)
response[203] = 0x48078b4810c78348(0x15b40)
response[204] = 0x8(0x94e60)
response[205] = 0x48078b4810c78348(0x15b40)
response[206] = 0xf0ffa83c475c085(0x15b48)
response[207] = 0xf0ffa83c475c085(0x15b48)
response[208] = 0x14f8834803e88348(0x15b10)
response[209] = 0x14f8834803e88348(0x15b10)
response[210] = 0x45eb80c524ff2677(0x15b18)
response[211] = 0x45eb80c524ff2677(0x15b18)
response[212] = 0xffffba08478b4800(0x15b20)
response[213] = 0x415b40(0x5eba8)
response[214] = 0x48078b4810c78348(0x15b40)
response[215] = 0x48078b4810c78348(0x15b40)
response[216] = 0x9(0x94e70)
response[217] = 0x48078b4810c78348(0x15b40)
response[218] = 0xf0ffa83c475c085(0x15b48)
response[219] = 0xf0ffa83c475c085(0x15b48)
response[220] = 0x14f8834803e88348(0x15b10)
response[221] = 0x14f8834803e88348(0x15b10)
response[222] = 0x45eb80c524ff2677(0x15b18)
response[223] = 0x45eb80c524ff2677(0x15b18)
response[224] = 0xffffba08478b4800(0x15b20)
response[225] = 0x415b40(0x5ebb0)
response[226] = 0x48078b4810c78348(0x15b40)
response[227] = 0x48078b4810c78348(0x15b40)
response[xxx] = 0xb(0x94e80)
response[229] = 0x48078b4810c78348(0x15b40)
response[230] = 0xf0ffa83c475c085(0x15b48)
response[231] = 0xf0ffa83c475c085(0x15b48)
response[232] = 0x14f8834803e88348(0x15b10)
response[233] = 0x14f8834803e88348(0x15b10)
response[234] = 0x45eb80c524ff2677(0x15b18)
response[235] = 0x45eb80c524ff2677(0x15b18)
response[236] = 0xffffba08478b4800(0x15b20)
response[xxx] = 0x415bd3(0x5ebc0)
response[238] = 0x8348084f33ffffff(0x15bd0)
response[239] = 0x555500000064(0x94e88)
response[240] = 0x8348084f33ffffff(0x15bd0)
response[241] = 0x78b4801ca8310c7(0x15bd8)
response[242] = 0x78b4801ca8310c7(0x15bd8)
response[243] = 0x78b4801ca8310c7(0x15bd8)
response[244] = 0xc(0x94e90)
response[245] = 0xffff27850fc08548(0x15be0)
response[246] = 0xffff27850fc08548(0x15be0)
response[247] = 0x8b48ffffff5ee9ff(0x15be8)
response[248] = 0x14f8834803e88348(0x15b10)
response[249] = 0x14f8834803e88348(0x15b10)
response[250] = 0x45eb80c524ff2677(0x15b18)
response[251] = 0x45eb80c524ff2677(0x15b18)
response[252] = 0xffffba08478b4800(0x15b20)
response[253] = 0x415bb8(0x5ebc8)
response[xxx] = 0x8310c78348084f33(0x15bb8)
response[255] = 0x555500000064(0x94e98)
response[256] = 0x8310c78348084f33(0x15bb8)
response[257] = 0x8310c78348084f33(0x15bb8)
response[258] = 0xc08548078b4802ca(0x15bc0)
response[259] = 0xc08548078b4802ca(0x15bc0)
response[260] = 0xd(0x94ea0)
response[261] = 0xc08548078b4802ca(0x15bc0)
response[262] = 0x79e9ffffff42850f(0x15bc8)
response[263] = 0x14f8834803e88348(0x15b10)
response[264] = 0x14f8834803e88348(0x15b10)
response[265] = 0x45eb80c524ff2677(0x15b18)
response[266] = 0x45eb80c524ff2677(0x15b18)
response[267] = 0xffffba08478b4800(0x15b20)
response[268] = 0x415ba0(0x5ebd0)
response[269] = 0x8310c78348087733(0x15ba0)
response[270] = 0x555500000064(0x94ea8)
response[271] = 0x8310c78348087733(0x15ba0)
response[272] = 0x8310c78348087733(0x15ba0)
response[273] = 0xc08548078b4804ca(0x15ba8)
response[274] = 0xc08548078b4804ca(0x15ba8)
response[275] = 0xe(0x94eb0)
response[276] = 0xc08548078b4804ca(0x15ba8)
response[277] = 0x94ebffffff5a850f(0x15bb0)
response[278] = 0x14f8834803e88348(0x15b10)
response[279] = 0x14f8834803e88348(0x15b10)
response[280] = 0x45eb80c524ff2677(0x15b18)
response[281] = 0x45eb80c524ff2677(0x15b18)
response[282] = 0xffffba08478b4800(0x15b20)
response[283] = 0x415b88(0x5ebd8)
response[284] = 0x8310c78348087733(0x15b88)
response[285] = 0x555500000064(0x94eb8)
response[286] = 0x8310c78348087733(0x15b88)
response[287] = 0x8310c78348087733(0x15b88)
response[288] = 0xc08548078b4808ca(0x15b90)
response[289] = 0xc08548078b4808ca(0x15b90)
response[xxx] = 0x17(0x94ec0)
response[291] = 0xc08548078b4808ca(0x15b90)
response[292] = 0xacebffffff72850f(0x15b98)
response[293] = 0x14f8834803e88348(0x15b10)
response[294] = 0x14f8834803e88348(0x15b10)
response[295] = 0x45eb80c524ff2677(0x15b18)
response[296] = 0x45eb80c524ff2677(0x15b18)
response[297] = 0xffffba08478b4800(0x15b20)
response[xxx] = 0x415b21(0x5ec20)
response[299] = 0xffffba08478b4800(0x15b20)
response[300] = 0x0(0x94ec8)
response[301] = 0xffffba08478b4800(0x15b20)
response[302] = 0x17da5c05c7ffff(0x15b28)
response[303] = 0x17da5c05c7ffff(0x15b28)
response[304] = 0x9ec6058900000001(0x15b30)
response[306] = 0x9ec6058900000001(0x15b30)
response[307] = 0x9066669066660016(0x15b38)
response[309] = 0x9066669066660016(0x15b38)
response[310] = 0x9066669066660016(0x15b38)
response[311] = 0x48078b4810c78348(0x15b40)
response[312] = 0x48078b4810c78348(0x15b40)
response[313] = 0x19(0x94ed0)
response[314] = 0x48078b4810c78348(0x15b40)
response[315] = 0xf0ffa83c475c085(0x15b48)
response[316] = 0xf0ffa83c475c085(0x15b48)
response[317] = 0x14f8834803e88348(0x15b10)
response[318] = 0x14f8834803e88348(0x15b10)
response[319] = 0x45eb80c524ff2677(0x15b18)
response[320] = 0x48078b4810c78348(0x15b40)
response[321] = 0x48078b4810c78348(0x15b40)
response[322] = 0x1f(0x94ee0)
response[323] = 0x48078b4810c78348(0x15b40)
response[324] = 0xf0ffa83c475c085(0x15b48)
response[325] = 0xf0ffa83c475c085(0x15b48)
response[326] = 0x14f8834803e88348(0x15b10)
response[327] = 0x14f8834803e88348(0x15b10)
response[328] = 0x45eb80c524ff2677(0x15b18)
response[329] = 0x48078b4810c78348(0x15b40)
response[330] = 0x48078b4810c78348(0x15b40)
response[331] = 0xf(0x94ef0)
response[332] = 0x48078b4810c78348(0x15b40)
response[333] = 0xf0ffa83c475c085(0x15b48)
response[334] = 0xf0ffa83c475c085(0x15b48)
response[335] = 0x14f8834803e88348(0x15b10)
response[336] = 0x14f8834803e88348(0x15b10)
response[337] = 0x45eb80c524ff2677(0x15b18)
response[338] = 0x45eb80c524ff2677(0x15b18)
response[339] = 0xffffba08478b4800(0x15b20)
response[xxx] = 0x415b40(0x5ebe0)
response[341] = 0x48078b4810c78348(0x15b40)
response[342] = 0x48078b4810c78348(0x15b40)
response[xxx] = 0x0(0x94f00)
response[344] = 0x48078b4810c78348(0x15b40)
response[345] = 0xf0ffa83c475c085(0x15b48)
response[346] = 0xf0ffa83c475c085(0x15b48)
response[347] = 0xf0ffa83c475c085(0x15b48)
response[348] = 0xf0ffa83c475c085(0x15b48)
response[349] = 0x48c3f3000000f984(0x15b50)
response[350] = 0x48c3f3000000f984(0x15b50)
response[xxx] = 0x409a81(0x94b78)
response[352] = 0x176d28158b4400(0x9a80)
response[353] = 0x555500000000(0x807b0)
response[354] = 0xa4850fd28545(0x9a88)
response[355] = 0xa4850fd28545(0x9a88)
response[356] = 0x8d4c20245c8d4800(0x9a90)
response[357] = 0x8d4c20245c8d4800(0x9a90)
response[358] = 0x8d4c20245c8d4800(0x9a90)
response[359] = 0x8948000001b024a4(0x9a98)
response[360] = 0x8948000001b024a4(0x9a98)
response[361] = 0xc085000097eae8df(0x9aa0)
response[362] = 0xc085000097eae8df(0x9aa0)
response[363] = 0x409aa6(0x94b78)
response[xxx] = 0xf0000003fc0c748(0x13290)
response[365] = 0xf0000003fc0c748(0x13290)
response[366] = 0xffffff0013d4805(0x13298)
response[367] = 0xffffff0013d4805(0x13298)
response[368] = 0xffffff0013d4805(0x13298)
response[369] = 0x9090c300002feb83(0x132a0)
response[370] = 0x9090c300002feb83(0x132a0)
response[371] = 0x409aa6(0x94b78)
response[xxx] = 0xc085000097eae8df(0x9aa0)
response[373] = 0x8d4c000000ff850f(0x9aa8)
response[374] = 0x8d4c000000ff850f(0x9aa8)
response[375] = 0xb60f4100000082a3(0x9ab0)
response[376] = 0xb60f4100000082a3(0x9ab0)
response[377] = 0x4cc03145ff312414(0x9ab8)
response[xxx] = 0x5555590d1935(0x94c22)
response[379] = 0x4cc03145ff312414(0x9ab8)
response[380] = 0x4cc03145ff312414(0x9ab8)
response[381] = 0x4cc03145ff312414(0x9ab8)
response[xxx] = 0x77093cd0428de689(0x9ac0)
response[383] = 0x77093cd0428de689(0x9ac0)
response[384] = 0x77093cd0428de689(0x9ac0)
response[385] = 0x77093cd0428de689(0x9ac0)
response[386] = 0x906666906666664d(0x9ac8)
response[387] = 0x906666906666664d(0x9ac8)
response[388] = 0x906666906666664d(0x9ac8)
response[389] = 0x11ebd0488dc2be0f(0x9ad0)
response[390] = 0x11ebd0488dc2be0f(0x9ad0)
response[391] = 0x11ebd0488dc2be0f(0x9ad0)
response[392] = 0x8d16b60fc6ff48d0(0x9ae8)
response[393] = 0x8d16b60fc6ff48d0(0x9ae8)
response[394] = 0x5555590d1a2e(0x94c23)
response[395] = 0x8d16b60fc6ff48d0(0x9ae8)
response[396] = 0xe7c1e276093cd042(0x9af0)
response[397] = 0xe7c1e276093cd042(0x9af0)
response[398] = 0xe7c1e276093cd042(0x9af0)
response[399] = 0xe7c1e276093cd042(0x9af0)
response[400] = 0x9c6ff48c0ff4108(0x9af8)
response[401] = 0x9c6ff48c0ff4108(0x9af8)
response[402] = 0x9c6ff48c0ff4108(0x9af8)
response[403] = 0x9c6ff48c0ff4108(0x9af8)
response[xxx] = 0xb60f0a752efa80cf(0x9b00)
response[405] = 0xb60f0a752efa80cf(0x9b00)
response[406] = 0xb60f0a752efa80cf(0x9b00)
response[407] = 0xb60f0a752efa80cf(0x9b00)
response[408] = 0xc076093cd0428d16(0x9b08)
response[409] = 0x5555590d1a31(0x94c24)
response[410] = 0xc076093cd0428d16(0x9b08)
response[411] = 0xc076093cd0428d16(0x9b08)
response[412] = 0xc076093cd0428d16(0x9b08)
response[413] = 0x11ebd0488dc2be0f(0x9ad0)
response[414] = 0x11ebd0488dc2be0f(0x9ad0)
response[415] = 0x11ebd0488dc2be0f(0x9ad0)
response[416] = 0x8d16b60fc6ff48d0(0x9ae8)
response[417] = 0x8d16b60fc6ff48d0(0x9ae8)
response[418] = 0x5555590d1a2e(0x94c25)
response[419] = 0x8d16b60fc6ff48d0(0x9ae8)
response[420] = 0xe7c1e276093cd042(0x9af0)
response[421] = 0xe7c1e276093cd042(0x9af0)
response[422] = 0xe7c1e276093cd042(0x9af0)
response[423] = 0xe7c1e276093cd042(0x9af0)
response[424] = 0x9c6ff48c0ff4108(0x9af8)
response[425] = 0x9c6ff48c0ff4108(0x9af8)
response[426] = 0x9c6ff48c0ff4108(0x9af8)
response[427] = 0x9c6ff48c0ff4108(0x9af8)
response[428] = 0xb60f0a752efa80cf(0x9b00)
response[429] = 0xb60f0a752efa80cf(0x9b00)
response[430] = 0xb60f0a752efa80cf(0x9b00)
response[431] = 0xb60f0a752efa80cf(0x9b00)
response[432] = 0xc076093cd0428d16(0x9b08)
response[433] = 0x5555590d1a30(0x94c26)
response[434] = 0xc076093cd0428d16(0x9b08)
response[435] = 0xc076093cd0428d16(0x9b08)
response[436] = 0xc076093cd0428d16(0x9b08)
response[437] = 0x11ebd0488dc2be0f(0x9ad0)
response[438] = 0x11ebd0488dc2be0f(0x9ad0)
response[439] = 0x11ebd0488dc2be0f(0x9ad0)
response[440] = 0x8d16b60fc6ff48d0(0x9ae8)
response[441] = 0x8d16b60fc6ff48d0(0x9ae8)
response[442] = 0x5555590d1a00(0x94c27)
response[443] = 0x8d16b60fc6ff48d0(0x9ae8)
response[444] = 0xe7c1e276093cd042(0x9af0)
response[445] = 0xe7c1e276093cd042(0x9af0)
response[446] = 0xe7c1e276093cd042(0x9af0)
response[447] = 0xe7c1e276093cd042(0x9af0)
response[448] = 0x9c6ff48c0ff4108(0x9af8)
response[449] = 0x9c6ff48c0ff4108(0x9af8)
response[450] = 0x9c6ff48c0ff4108(0x9af8)
response[451] = 0x9c6ff48c0ff4108(0x9af8)
response[452] = 0xb60f0a752efa80cf(0x9b00)
response[453] = 0xb60f0a752efa80cf(0x9b00)
response[454] = 0xb60f0a752efa80cf(0x9b00)
response[455] = 0x3b90d7f02f88341(0x9b10)
response[456] = 0x3b90d7f02f88341(0x9b10)
response[457] = 0x20400ff81e7d303(0x9b20)
response[458] = 0x89000000dc860f00(0x9b28)
response[459] = 0x89000000dc860f00(0x9b28)
response[460] = 0x89000000dc860f00(0x9b28)
response[461] = 0x4a6e8001899fb3d(0x9b30)
response[463] = 0x4a6e8001899fb3d(0x9b30)
response[464] = 0x310c74ff854d0000(0x9b38)
response[465] = 0x409b3a(0x94b78)
response[xxx] = 0x20bf00000008be(0x9fe0)
response[467] = 0x20bf00000008be(0x9fe0)
response[468] = 0x90fffffd11e90000(0x9fe8)
response[469] = 0x90fffffd11e90000(0x9fe8)
response[xxx] = 0x74894ce8246c894c(0x9d00)
response[471] = 0x1(0x94b60)
response[472] = 0x74894ce8246c894c(0x9d00)
response[473] = 0x7c894ced3145f024(0x9d08)
response[474] = 0x7fffffffedc8(0x94b68)
response[475] = 0x7c894ced3145f024(0x9d08)
response[476] = 0x7c894ced3145f024(0x9d08)
response[477] = 0x45d0245c8948f824(0x9d10)
response[478] = 0x0(0x94b70)
response[479] = 0x45d0245c8948f824(0x9d10)
response[480] = 0x7fffffffeba0(0x94b48)
response[481] = 0x45d0245c8948f824(0x9d10)
response[482] = 0x4cd8246c8948f631(0x9d18)
response[483] = 0x4cd8246c8948f631(0x9d18)
response[484] = 0x0(0x94b50)
response[485] = 0x4cd8246c8948f631(0x9d18)
response[486] = 0x48ec8348e0246489(0x9d20)
response[487] = 0x7fffffffec22(0x94b58)
response[488] = 0x48ec8348e0246489(0x9d20)
response[489] = 0x49001897b1058b48(0x9d28)
response[490] = 0x400040(0x934e0)
response[491] = 0x49001897b1058b48(0x9d28)
response[492] = 0x102444c748ff89(0x9d30)
response[493] = 0x102444c748ff89(0x9d30)
response[494] = 0x82444c748000000(0x9d38)
response[495] = 0x0(0x94b40)
response[496] = 0x82444c748000000(0x9d38)
response[xxx] = 0x2434894800000000(0x9d40)
response[499] = 0x2434894800000000(0x9d40)
response[500] = 0x8(0x94b30)
response[501] = 0x158b483574c08548(0x9d48)
response[502] = 0x158b483574c08548(0x9d48)
response[503] = 0x158b483574c08548(0x9d48)
response[504] = 0x48c18948001897bc(0x9d50)
response[505] = 0x5(0x93510)
response[506] = 0x48c18948001897bc(0x9d50)
response[507] = 0x48c18948001897bc(0x9d50)
response[508] = 0x4800000000d5048d(0x9d58)
response[509] = 0x4800000000d5048d(0x9d58)
response[510] = 0x3948c1048d48d029(0x9d60)
response[511] = 0x3948c1048d48d029(0x9d60)
response[512] = 0x3948c1048d48d029(0x9d60)
response[513] = 0x90669066661776c8(0x9d68)
response[514] = 0x90669066661776c8(0x9d68)
response[515] = 0x90669066661776c8(0x9d68)
response[516] = 0x90669066661776c8(0x9d68)
response[517] = 0x1d9840f073983(0x9d70)
response[xxx] = 0x555500000001(0x40)
response[519] = 0x1d9840f073983(0x9d70)
response[520] = 0xc8394838c1834800(0x9d78)
response[521] = 0xc8394838c1834800(0x9d78)
response[522] = 0xc8394838c1834800(0x9d78)
response[xxx] = 0xc2940fed854dee77(0x9d80)
response[524] = 0x1d9840f073983(0x9d70)
response[525] = 0x555500000001(0x78)
response[526] = 0x1d9840f073983(0x9d70)
response[527] = 0xc8394838c1834800(0x9d78)
response[528] = 0xc8394838c1834800(0x9d78)
response[529] = 0xc8394838c1834800(0x9d78)
response[530] = 0xc2940fed854dee77(0x9d80)
response[531] = 0x1d9840f073983(0x9d70)
response[xxx] = 0x555500000004(0xb0)
response[533] = 0x1d9840f073983(0x9d70)
response[534] = 0xc8394838c1834800(0x9d78)
response[535] = 0xc8394838c1834800(0x9d78)
response[536] = 0xc8394838c1834800(0x9d78)
response[xxx] = 0xc2940fed854dee77(0x9d80)
response[538] = 0x1d9840f073983(0x9d70)
response[xxx] = 0x55556474e551(0xe8)
response[540] = 0x1d9840f073983(0x9d70)
response[541] = 0xc8394838c1834800(0x9d78)
response[542] = 0xc8394838c1834800(0x9d78)
response[543] = 0xc8394838c1834800(0x9d78)
response[544] = 0xc2940fed854dee77(0x9d80)
response[545] = 0x1d9840f073983(0x9d70)
response[xxx] = 0x555565041580(0x120)
response[547] = 0x1d9840f073983(0x9d70)
response[548] = 0xc8394838c1834800(0x9d78)
response[549] = 0xc8394838c1834800(0x9d78)
response[550] = 0xc8394838c1834800(0x9d78)
response[551] = 0xc2940fed854dee77(0x9d80)
response[552] = 0xc2940fed854dee77(0x9d80)
response[553] = 0xc2940fed854dee77(0x9d80)
response[554] = 0x960f20ff8349c031(0x9d88)
response[555] = 0x960f20ff8349c031(0x9d88)
response[556] = 0x960f20ff8349c031(0x9d88)
response[557] = 0x5c8b482374c285c0(0x9d90)
response[558] = 0x5c8b482374c285c0(0x9d90)
response[559] = 0x5c8b482374c285c0(0x9d90)
response[560] = 0x5c8b482374c285c0(0x9d90)
response[561] = 0x4c20246c8b481824(0x9d98)
response[xxx] = 0x7fffffffeba0(0x94b48)
response[563] = 0x4c20246c8b481824(0x9d98)
response[564] = 0x0(0x94b50)
response[565] = 0x4c20246c8b481824(0x9d98)
response[566] = 0x246c8b4c2824648b(0x9da0)
response[567] = 0x7fffffffec22(0x94b58)
response[568] = 0x246c8b4c2824648b(0x9da0)
response[569] = 0x8b4c3824748b4c30(0x9da8)
response[570] = 0x1(0x94b60)
response[571] = 0x8b4c3824748b4c30(0x9da8)
response[572] = 0x7fffffffedc8(0x94b68)
response[573] = 0x8b4c3824748b4c30(0x9da8)
response[574] = 0xc348c4834840247c(0x9db0)
response[575] = 0x0(0x94b70)
response[576] = 0xc348c4834840247c(0x9db0)
response[577] = 0xc348c4834840247c(0x9db0)
response[578] = 0x409b3a(0x94b78)
response[579] = 0x310c74ff854d0000(0x9b38)
response[580] = 0x310c74ff854d0000(0x9b38)
response[xxx] = 0x92a6158b4800000f(0x9b48)
response[582] = 0xef8944f6894c0018(0x9b50)
response[xxx] = 0x7fffffffedd8(0x92df8)
response[584] = 0xef8944f6894c0018(0x9b50)
response[585] = 0xef8944f6894c0018(0x9b50)
response[586] = 0x7c83480000c713e8(0x9b58)
response[587] = 0x409b5d(0x94b78)
response[xxx] = 0x666666ffffff6be9(0x16270)
response[xxx] = 0x5c894800000000b8(0x161e0)
response[590] = 0x5c894800000000b8(0x161e0)
response[591] = 0x4cf0246c8948e824(0x161e8)
response[592] = 0x7fffffffeba0(0x94b60)
response[593] = 0x4cf0246c8948e824(0x161e8)
response[594] = 0x0(0x94b68)
response[595] = 0x4cf0246c8948e824(0x161e8)
response[596] = 0x48d38948f8246489(0x161f0)
response[597] = 0x7fffffffec22(0x94b70)
response[598] = 0x48d38948f8246489(0x161f0)
response[599] = 0x48d38948f8246489(0x161f0)
response[600] = 0xc08548d23118ec83(0x161f8)
response[601] = 0xc08548d23118ec83(0x161f8)
response[602] = 0xc08548d23118ec83(0x161f8)
response[xxx] = 0x1074f58948fc8941(0x16200)
response[604] = 0x1074f58948fc8941(0x16200)
response[605] = 0x1074f58948fc8941(0x16200)
response[606] = 0x16a5901589d285(0x16218)
response[607] = 0x16a5901589d285(0x16218)
response[609] = 0x17d36f2589443f74(0x16220)
response[610] = 0x16a7783db70fff(0x16260)
response[xxx] = 0x5555590d037f(0x809e0)
response[612] = 0x90b3eb00003c43e8(0x16268)
response[613] = 0x41626d(0x94b58)
response[xxx] = 0x2444b70ffe247cd9(0x19eb0)
response[615] = 0x5555590d0000(0x94b56)
response[616] = 0x2444b70ffe247cd9(0x19eb0)
response[617] = 0x25660f3fe78166fe(0x19eb8)
response[618] = 0x5555590d0000(0x94b56)
response[619] = 0x25660f3fe78166fe(0x19eb8)
response[620] = 0x25660f3fe78166fe(0x19eb8)
response[xxx] = 0x247c8966c709f0c0(0x19ec0)
response[622] = 0x247c8966c709f0c0(0x19ec0)
response[623] = 0x247c8966c709f0c0(0x19ec0)
response[624] = 0x9090c3fe246cd9fe(0x19ec8)
response[625] = 0x5555590d033f(0x94b56)
response[626] = 0x9090c3fe246cd9fe(0x19ec8)
response[627] = 0x5555590d033f(0x94b56)
response[628] = 0x9090c3fe246cd9fe(0x19ec8)
response[629] = 0x41626d(0x94b58)
response[630] = 0x90b3eb00003c43e8(0x16268)
response[631] = 0x17d36f2589443f74(0x16220)
response[632] = 0x17d3702d894800(0x16228)
response[633] = 0x555500000001(0x93598)
response[634] = 0x17d3702d894800(0x16228)
response[635] = 0x7fffffffedc8(0x935a0)
response[636] = 0xe80017cbc11d8948(0x16230)
response[637] = 0x7fffffffedd8(0x92df8)
response[638] = 0xe80017cbc11d8948(0x16230)
response[639] = 0xfffa2fe8ffffff34(0x16238)
response[640] = 0x41623c(0x94b58)
response[xxx] = 0x6c8948f0245c8948(0x16170)
response[642] = 0x7fffffffedd8(0x94b48)
response[643] = 0x6c8948f0245c8948(0x16170)
response[644] = 0x58b18ec8348f824(0x16178)
response[645] = 0x7fffffffedc8(0x94b50)
response[646] = 0x58b18ec8348f824(0x16178)
response[647] = 0x58b18ec8348f824(0x16178)
response[xxx] = 0xf74c0850017d40c(0x16180)
response[649] = 0x555500000001(0x93590)
response[650] = 0xf74c0850017d40c(0x16180)
response[651] = 0xf74c0850017d40c(0x16180)
response[652] = 0x6c8b4808245c8b48(0x16188)
response[653] = 0x7fffffffedd8(0x94b48)
response[654] = 0x6c8b4808245c8b48(0x16188)
response[655] = 0xe8c318c483481024(0x16190)
response[656] = 0x7fffffffedc8(0x94b50)
response[657] = 0xe8c318c483481024(0x16190)
response[658] = 0xe8c318c483481024(0x16190)
response[659] = 0x41623c(0x94b58)
response[660] = 0xfffa2fe8ffffff34(0x16238)
response[xxx] = 0x44ee8948da8948ff(0x16240)
response[662] = 0x416241(0x94b58)
response[xxx] = 0x8348535554415541(0x15c70)
response[664] = 0x1(0x94b50)
response[665] = 0x8348535554415541(0x15c70)
response[666] = 0x1(0x94b48)
response[667] = 0x8348535554415541(0x15c70)
response[668] = 0x7fffffffedc8(0x94b40)
response[669] = 0x8348535554415541(0x15c70)
response[671] = 0x8348535554415541(0x15c70)
response[672] = 0x20e2c148310f08ec(0x15c78)
response[673] = 0x20e2c148310f08ec(0x15c78)
response[674] = 0x20e2c148310f08ec(0x15c78)
response[xxx] = 0x3d8348c20948c089(0x15c80)
response[676] = 0x3d8348c20948c089(0x15c80)
response[677] = 0x3d8348c20948c089(0x15c80)
response[678] = 0x158948000017d8b3(0x15c88)
response[xxx] = 0x1000(0x93540)
response[680] = 0x158948000017d8b3(0x15c88)
response[681] = 0x75e80e750017d82c(0x15c90)
response[682] = 0x1134(0x934c0)
response[683] = 0x75e80e750017d82c(0x15c90)
response[684] = 0x45ed49bf0017d89c(0x15ca0)
response[685] = 0x6de800471707bb00(0x15ca8)
response[686] = 0x6de800471707bb00(0x15ca8)
response[687] = 0x6de800471707bb00(0x15ca8)
response[688] = 0x51bfc08548000046(0x15cb0)
response[xxx] = 0x74894ce82464894c(0x1a320)
response[691] = 0x1(0x94b10)
response[692] = 0x74894ce82464894c(0x1a320)
response[693] = 0x5c8948fc8949f824(0x1a328)
response[694] = 0x7fffffffedc8(0x94b20)
response[695] = 0x5c8948fc8949f824(0x1a328)
response[696] = 0x5c8948fc8949f824(0x1a328)
response[697] = 0x4ce0246c8948d824(0x1a330)
response[698] = 0x471707(0x94b00)
response[699] = 0x4ce0246c8948d824(0x1a330)
response[700] = 0x7fffffffedc8(0x94b08)
response[701] = 0x4ce0246c8948d824(0x1a330)
response[702] = 0x28ec8348f0246c89(0x1a338)
response[703] = 0x1(0x94b18)
response[704] = 0x28ec8348f0246c89(0x1a338)
response[xxx] = 0x158b48ffff79cbe8(0x1a340)
response[xxx] = 0x8949dff748fe8948(0x11d10)
response[708] = 0x8949dff748fe8948(0x11d10)
response[709] = 0x8949dff748fe8948(0x11d10)
response[710] = 0x49317407e08341f0(0x11d18)
response[711] = 0x49317407e08341f0(0x11d18)
response[712] = 0x49317407e08341f0(0x11d18)
response[713] = 0x49317407e08341f0(0x11d18)
response[714] = 0x669066666608e883(0x11d20)
response[715] = 0x669066666608e883(0x11d20)
response[716] = 0x669066666608e883(0x11d20)
response[717] = 0x9066669066669066(0x11d28)
response[718] = 0x9066669066669066(0x11d28)
response[719] = 0x9066669066669066(0x11d28)
response[720] = 0x367840f003e80(0x11d30)
response[xxx] = 0x555559c1404c(0x5ed49)
response[722] = 0x367840f003e80(0x11d30)
response[723] = 0x75c0ff49c6ff4800(0x11d38)
response[724] = 0x75c0ff49c6ff4800(0x11d38)
response[725] = 0x75c0ff49c6ff4800(0x11d38)
response[726] = 0x75c0ff49c6ff4800(0x11d38)
response[xxx] = 0x66666690666666ef(0x11d40)
response[728] = 0x367840f003e80(0x11d30)
response[729] = 0x555559c14044(0x5ed4a)
response[730] = 0x367840f003e80(0x11d30)
response[731] = 0x75c0ff49c6ff4800(0x11d38)
response[732] = 0x75c0ff49c6ff4800(0x11d38)
response[733] = 0x75c0ff49c6ff4800(0x11d38)
response[734] = 0x75c0ff49c6ff4800(0x11d38)
response[735] = 0x66666690666666ef(0x11d40)
response[736] = 0x367840f003e80(0x11d30)
response[737] = 0x555559c1405f(0x5ed4b)
response[738] = 0x367840f003e80(0x11d30)
response[739] = 0x75c0ff49c6ff4800(0x11d38)
response[740] = 0x75c0ff49c6ff4800(0x11d38)
response[741] = 0x75c0ff49c6ff4800(0x11d38)
response[742] = 0x75c0ff49c6ff4800(0x11d38)
response[743] = 0x66666690666666ef(0x11d40)
response[744] = 0x367840f003e80(0x11d30)
response[745] = 0x555559c14057(0x5ed4c)
response[746] = 0x367840f003e80(0x11d30)
response[747] = 0x75c0ff49c6ff4800(0x11d38)
response[748] = 0x75c0ff49c6ff4800(0x11d38)
response[749] = 0x75c0ff49c6ff4800(0x11d38)
response[750] = 0x75c0ff49c6ff4800(0x11d38)
response[751] = 0x66666690666666ef(0x11d40)
response[752] = 0x367840f003e80(0x11d30)
response[753] = 0x555559c14041(0x5ed4d)
response[754] = 0x367840f003e80(0x11d30)
response[755] = 0x75c0ff49c6ff4800(0x11d38)
response[756] = 0x75c0ff49c6ff4800(0x11d38)
response[757] = 0x75c0ff49c6ff4800(0x11d38)
response[758] = 0x75c0ff49c6ff4800(0x11d38)
response[759] = 0x66666690666666ef(0x11d40)
response[760] = 0x367840f003e80(0x11d30)
response[761] = 0x555559c14052(0x5ed4e)
response[762] = 0x367840f003e80(0x11d30)
response[763] = 0x75c0ff49c6ff4800(0x11d38)
response[764] = 0x75c0ff49c6ff4800(0x11d38)
response[765] = 0x75c0ff49c6ff4800(0x11d38)
response[766] = 0x75c0ff49c6ff4800(0x11d38)
response[767] = 0x66666690666666ef(0x11d40)
response[768] = 0x367840f003e80(0x11d30)
response[769] = 0x555559c1404e(0x5ed4f)
response[770] = 0x367840f003e80(0x11d30)
response[771] = 0x75c0ff49c6ff4800(0x11d38)
response[772] = 0x75c0ff49c6ff4800(0x11d38)
response[773] = 0x75c0ff49c6ff4800(0x11d38)
response[774] = 0x75c0ff49c6ff4800(0x11d38)
response[775] = 0x66666690666666ef(0x11d40)
response[776] = 0x66666690666666ef(0x11d40)
response[777] = 0x66666690666666ef(0x11d40)
response[778] = 0x9066669066666690(0x11d48)
response[779] = 0x9066669066666690(0x11d48)
response[780] = 0x9066669066666690(0x11d48)
response[781] = 0xfefeffb948068b48(0x11d50)
response[782] = 0x5242494c5f444c00(0x5ed50)
response[783] = 0xfefeffb948068b48(0x11d50)
response[784] = 0xc88949fefefefefe(0x11d58)
response[785] = 0xc88949fefefefefe(0x11d58)
response[786] = 0x307830fc00149(0x11d60)
response[787] = 0x307830fc00149(0x11d60)
response[788] = 0x49c80949c0314900(0x11d68)
response[789] = 0x49c80949c0314900(0x11d68)
response[790] = 0x49c80949c0314900(0x11d68)
response[791] = 0x49c80949c0314900(0x11d68)
response[792] = 0x2f8850fc0ff(0x11d70)
response[793] = 0x2f8850fc0ff(0x11d70)
response[xxx] = 0x84c6ff482c74c084(0x12070)
response[795] = 0x84c6ff482c74c084(0x12070)
response[xxx] = 0x909090c337048d48(0x120a0)
response[797] = 0x909090c337048d48(0x120a0)
response[798] = 0x41a345(0x94af8)
response[xxx] = 0x158b48ffff79cbe8(0x1a340)
response[800] = 0x48c6894900178aac(0x1a348)
response[801] = 0x7fffffffedd8(0x92df8)
response[802] = 0x48c6894900178aac(0x1a348)
response[803] = 0x48c6894900178aac(0x1a348)
response[804] = 0x4b60f410974d285(0x1a350)
response[805] = 0x4b60f410974d285(0x1a350)
response[806] = 0x4b60f410974d285(0x1a350)
response[807] = 0x48c0312375c08424(0x1a358)
response[808] = 0x555559c1414c(0x5ed49)
response[809] = 0x48c0312375c08424(0x1a358)
response[810] = 0x48c0312375c08424(0x1a358)
response[xxx] = 0x2e750001247c8041(0x1a380)
response[812] = 0x555559c14144(0x5ed4a)
response[813] = 0x2e750001247c8041(0x1a380)
response[814] = 0x8b48a7ebed75db85(0x1a3b0)
response[815] = 0x8349242cb70f4502(0x1a3b8)
response[xxx] = 0x0(0x94dd8)
response[817] = 0x8349242cb70f4502(0x1a3b8)
response[818] = 0x555559c1444c(0x5ed49)
response[819] = 0x8349242cb70f4502(0x1a3b8)
response[xxx] = 0x894802c4834902ee(0x1a3c0)
response[821] = 0x894802c4834902ee(0x1a3c0)
response[822] = 0x894802c4834902ee(0x1a3c0)
response[823] = 0x89488f74c08548d5(0x1a3c8)
response[824] = 0x89488f74c08548d5(0x1a3c8)
response[825] = 0x89488f74c08548d5(0x1a3c8)
response[xxx] = 0x48c0312375c08424(0x1a358)
response[827] = 0x48c0312375c08424(0x1a358)
response[828] = 0x8246c8b48241c8b(0x1a360)
response[829] = 0x471707(0x94b00)
response[830] = 0x8246c8b48241c8b(0x1a360)
response[831] = 0x7fffffffedc8(0x94b08)
response[832] = 0x6c8b4c1024648b4c(0x1a368)
response[833] = 0x1(0x94b10)
response[834] = 0x6c8b4c1024648b4c(0x1a368)
response[835] = 0x482024748b4c1824(0x1a370)
response[836] = 0x1(0x94b18)
response[837] = 0x482024748b4c1824(0x1a370)
response[838] = 0x7fffffffedc8(0x94b20)
response[839] = 0x482024748b4c1824(0x1a370)
response[840] = 0x90666666c328c483(0x1a378)
response[841] = 0x90666666c328c483(0x1a378)
response[842] = 0x415cb3(0x94b28)
response[843] = 0x51bfc08548000046(0x15cb0)
response[844] = 0x51bfc08548000046(0x15cb0)
response[845] = 0x80c3440f480045ed(0x15cb8)
response[846] = 0x80c3440f480045ed(0x15cb8)
response[847] = 0x80c3440f480045ed(0x15cb8)
response[xxx] = 0xc0b60fc0950f0038(0x15cc0)
response[xxx] = 0x555559c14200(0x71707)
response[850] = 0xc0b60fc0950f0038(0x15cc0)
response[851] = 0xc0b60fc0950f0038(0x15cc0)
response[852] = 0x4de80017d83a0589(0x15cc8)
response[854] = 0x4de80017d83a0589(0x15cc8)
response[855] = 0x15e8c78948000046(0x15cd0)
response[856] = 0x415cd3(0x94b28)
response[xxx] = 0x74894ce82464894c(0x1a320)
response[858] = 0x1(0x94b10)
response[859] = 0x74894ce82464894c(0x1a320)
response[860] = 0x5c8948fc8949f824(0x1a328)
response[861] = 0x7fffffffedc8(0x94b20)
response[862] = 0x5c8948fc8949f824(0x1a328)
response[863] = 0x5c8948fc8949f824(0x1a328)
response[864] = 0x4ce0246c8948d824(0x1a330)
response[865] = 0x471707(0x94b00)
response[866] = 0x4ce0246c8948d824(0x1a330)
response[867] = 0x7fffffffedc8(0x94b08)
response[868] = 0x4ce0246c8948d824(0x1a330)
response[869] = 0x28ec8348f0246c89(0x1a338)
response[870] = 0x1(0x94b18)
response[871] = 0x28ec8348f0246c89(0x1a338)
response[872] = 0x158b48ffff79cbe8(0x1a340)
response[873] = 0x41a345(0x94af8)
response[874] = 0x8949dff748fe8948(0x11d10)
response[875] = 0x8949dff748fe8948(0x11d10)
response[876] = 0x8949dff748fe8948(0x11d10)
response[877] = 0x49317407e08341f0(0x11d18)
response[878] = 0x49317407e08341f0(0x11d18)
response[879] = 0x49317407e08341f0(0x11d18)
response[880] = 0x49317407e08341f0(0x11d18)
response[881] = 0x669066666608e883(0x11d20)
response[882] = 0x669066666608e883(0x11d20)
response[883] = 0x669066666608e883(0x11d20)
response[884] = 0x9066669066669066(0x11d28)
response[885] = 0x9066669066669066(0x11d28)
response[886] = 0x9066669066669066(0x11d28)
response[887] = 0x367840f003e80(0x11d30)
response[888] = 0x555559c1424c(0x5ed51)
response[889] = 0x367840f003e80(0x11d30)
response[890] = 0x75c0ff49c6ff4800(0x11d38)
response[891] = 0x75c0ff49c6ff4800(0x11d38)
response[892] = 0x75c0ff49c6ff4800(0x11d38)
response[893] = 0x75c0ff49c6ff4800(0x11d38)
response[xxx] = 0x66666690666666ef(0x11d40)
response[895] = 0x367840f003e80(0x11d30)
response[896] = 0x555559c14244(0x5ed52)
response[897] = 0x367840f003e80(0x11d30)
response[898] = 0x75c0ff49c6ff4800(0x11d38)
response[899] = 0x75c0ff49c6ff4800(0x11d38)
response[900] = 0x75c0ff49c6ff4800(0x11d38)
response[901] = 0x75c0ff49c6ff4800(0x11d38)
response[902] = 0x66666690666666ef(0x11d40)
response[903] = 0x367840f003e80(0x11d30)
response[904] = 0x555559c1425f(0x5ed53)
response[905] = 0x367840f003e80(0x11d30)
response[906] = 0x75c0ff49c6ff4800(0x11d38)
response[907] = 0x75c0ff49c6ff4800(0x11d38)
response[908] = 0x75c0ff49c6ff4800(0x11d38)
response[909] = 0x75c0ff49c6ff4800(0x11d38)
response[910] = 0x66666690666666ef(0x11d40)
response[911] = 0x367840f003e80(0x11d30)
response[912] = 0x555559c1424c(0x5ed54)
response[913] = 0x367840f003e80(0x11d30)
response[914] = 0x75c0ff49c6ff4800(0x11d38)
response[915] = 0x75c0ff49c6ff4800(0x11d38)
response[916] = 0x75c0ff49c6ff4800(0x11d38)
response[917] = 0x75c0ff49c6ff4800(0x11d38)
response[918] = 0x66666690666666ef(0x11d40)
response[919] = 0x367840f003e80(0x11d30)
response[920] = 0x555559c14249(0x5ed55)
response[921] = 0x367840f003e80(0x11d30)
response[922] = 0x75c0ff49c6ff4800(0x11d38)
response[923] = 0x75c0ff49c6ff4800(0x11d38)
response[924] = 0x75c0ff49c6ff4800(0x11d38)
response[925] = 0x75c0ff49c6ff4800(0x11d38)
response[926] = 0x66666690666666ef(0x11d40)
response[927] = 0x367840f003e80(0x11d30)
response[928] = 0x555559c14242(0x5ed56)
response[929] = 0x367840f003e80(0x11d30)
response[930] = 0x75c0ff49c6ff4800(0x11d38)
response[931] = 0x75c0ff49c6ff4800(0x11d38)
response[932] = 0x75c0ff49c6ff4800(0x11d38)
response[933] = 0x75c0ff49c6ff4800(0x11d38)
response[934] = 0x66666690666666ef(0x11d40)
response[935] = 0x367840f003e80(0x11d30)
response[936] = 0x555559c14252(0x5ed57)
response[937] = 0x367840f003e80(0x11d30)
response[938] = 0x75c0ff49c6ff4800(0x11d38)
response[939] = 0x75c0ff49c6ff4800(0x11d38)
response[940] = 0x75c0ff49c6ff4800(0x11d38)
response[941] = 0x75c0ff49c6ff4800(0x11d38)
response[942] = 0x66666690666666ef(0x11d40)
response[943] = 0x66666690666666ef(0x11d40)
response[944] = 0x66666690666666ef(0x11d40)
response[945] = 0x9066669066666690(0x11d48)
response[946] = 0x9066669066666690(0x11d48)
response[947] = 0x9066669066666690(0x11d48)
response[948] = 0xfefeffb948068b48(0x11d50)
response[949] = 0x485441505f595241(0x5ed58)
response[950] = 0xfefeffb948068b48(0x11d50)
response[951] = 0xc88949fefefefefe(0x11d58)
response[952] = 0xc88949fefefefefe(0x11d58)
response[953] = 0x307830fc00149(0x11d60)
response[954] = 0x307830fc00149(0x11d60)
response[955] = 0x49c80949c0314900(0x11d68)
response[956] = 0x49c80949c0314900(0x11d68)
response[957] = 0x49c80949c0314900(0x11d68)
response[958] = 0x49c80949c0314900(0x11d68)
response[959] = 0x2f8850fc0ff(0x11d70)
response[960] = 0x2f8850fc0ff(0x11d70)
response[961] = 0x8768d4808468b48(0x11d78)
response[962] = 0x444e49425f444c00(0x5ed60)
response[963] = 0x8768d4808468b48(0x11d78)
response[xxx] = 0x830fc00149c88949(0x11d80)
response[965] = 0x830fc00149c88949(0x11d80)
response[966] = 0x830fc00149c88949(0x11d80)
response[967] = 0x49c03149000002e4(0x11d88)
response[968] = 0x49c03149000002e4(0x11d88)
response[969] = 0x49c03149000002e4(0x11d88)
response[970] = 0xd5850fc0ff49c809(0x11d90)
response[971] = 0xd5850fc0ff49c809(0x11d90)
response[972] = 0xd5850fc0ff49c809(0x11d90)
response[973] = 0x4808468b48000002(0x11d98)
response[xxx] = 0x84c6ff482c74c084(0x12070)
response[975] = 0x84c6ff482c74c084(0x12070)
response[xxx] = 0x909090c337048d48(0x120a0)
response[977] = 0x909090c337048d48(0x120a0)
response[978] = 0x41a345(0x94af8)
response[979] = 0x158b48ffff79cbe8(0x1a340)
response[980] = 0x48c6894900178aac(0x1a348)
response[xxx] = 0x7fffffffedd8(0x92df8)
response[982] = 0x48c6894900178aac(0x1a348)
response[983] = 0x48c6894900178aac(0x1a348)
response[984] = 0x4b60f410974d285(0x1a350)
response[985] = 0x4b60f410974d285(0x1a350)
response[986] = 0x4b60f410974d285(0x1a350)
response[987] = 0x48c0312375c08424(0x1a358)
response[988] = 0x555559c1434c(0x5ed51)
response[989] = 0x48c0312375c08424(0x1a358)
response[990] = 0x48c0312375c08424(0x1a358)
response[xxx] = 0x2e750001247c8041(0x1a380)
response[992] = 0x555559c14344(0x5ed52)
response[993] = 0x2e750001247c8041(0x1a380)
response[994] = 0x8b48a7ebed75db85(0x1a3b0)
response[995] = 0x8349242cb70f4502(0x1a3b8)
response[xxx] = 0x0(0x94dd8)
response[997] = 0x8349242cb70f4502(0x1a3b8)
response[998] = 0x555559c1444c(0x5ed51)
response[999] = 0x8349242cb70f4502(0x1a3b8)
response[xxx] = 0x894802c4834902ee(0x1a3c0)
response[1001] = 0x894802c4834902ee(0x1a3c0)
response[1002] = 0x894802c4834902ee(0x1a3c0)
response[1003] = 0x89488f74c08548d5(0x1a3c8)
response[1004] = 0x89488f74c08548d5(0x1a3c8)
response[1005] = 0x89488f74c08548d5(0x1a3c8)
response[1006] = 0x48c0312375c08424(0x1a358)
response[1007] = 0x48c0312375c08424(0x1a358)
response[1008] = 0x8246c8b48241c8b(0x1a360)
response[1009] = 0x471707(0x94b00)
response[1010] = 0x8246c8b48241c8b(0x1a360)
response[1011] = 0x7fffffffedc8(0x94b08)
response[1012] = 0x6c8b4c1024648b4c(0x1a368)
response[1013] = 0x1(0x94b10)
response[1014] = 0x6c8b4c1024648b4c(0x1a368)
response[1015] = 0x482024748b4c1824(0x1a370)
response[1016] = 0x1(0x94b18)
response[1017] = 0x482024748b4c1824(0x1a370)
response[1018] = 0x7fffffffedc8(0x94b20)
response[1019] = 0x482024748b4c1824(0x1a370)
response[1020] = 0x90666666c328c483(0x1a378)
response[1021] = 0x90666666c328c483(0x1a378)
response[1022] = 0x415cd3(0x94b28)
response[1023] = 0x15e8c78948000046(0x15cd0)
response[1024] = 0x15e8c78948000046(0x15cd0)
response[1025] = 0x45ed61bf0001d0(0x15cd8)
response[1026] = 0x415cdb(0x94b28)
response[xxx] = 0x38ba0057fa40b955(0x32cf0)
response[1028] = 0x7fffffffedc8(0x94b20)
response[1029] = 0x38ba0057fa40b955(0x32cf0)
response[1030] = 0x38ba0057fa40b955(0x32cf0)
response[1031] = 0x5541e589480057fa(0x32cf8)
response[1032] = 0x5541e589480057fa(0x32cf8)
response[1033] = 0x5541e589480057fa(0x32cf8)
response[1034] = 0x1(0x94b18)
response[xxx] = 0x8348535441fd8949(0x32d00)
response[1036] = 0x8348535441fd8949(0x32d00)
response[1037] = 0x1(0x94b10)
response[1038] = 0x8348535441fd8949(0x32d00)
response[1039] = 0x471707(0x94b08)
response[1040] = 0x8348535441fd8949(0x32d00)
response[1041] = 0x16078f358b4808ec(0x32d08)
response[1042] = 0x16078f358b4808ec(0x32d08)
response[1043] = 0x1607b83d8b4800(0x32d10)
response[xxx] = 0x0(0x934a0)
response[1045] = 0x1607b83d8b4800(0x32d10)
response[xxx] = 0x0(0x934d0)
response[1047] = 0x18bffffe3273e8(0x32d18)
response[1048] = 0x432d1d(0x94af8)
response[xxx] = 0x5c74800592e80b8(0x15f90)
response[1050] = 0x5c74800592e80b8(0x15f90)
response[1051] = 0x17cee8(0x15f98)
response[1053] = 0x900017ced505c748(0x15fa0)
response[1054] = 0x102c74800592e(0x15fa8)
response[1055] = 0x592e90(0x92e80)
response[1056] = 0x102c74800592e(0x15fa8)
response[1057] = 0x9090909090c30000(0x15fb0)
response[1059] = 0x9090909090c30000(0x15fb0)
response[1060] = 0x432d1d(0x94af8)
response[1061] = 0x18bffffe3273e8(0x32d18)
response[1062] = 0x14cd070589480000(0x32d20)
response[1063] = 0x14cd070589480000(0x32d20)
response[1064] = 0x8548fffdcc32e800(0x32d28)
response[1065] = 0x592e80(0x7fa30)
response[1066] = 0x8548fffdcc32e800(0x32d28)
response[1067] = 0x432d2e(0x94af8)
response[xxx] = 0x5c8948f02464894c(0xf960)
response[1069] = 0x1(0x94ae8)
response[1070] = 0x5c8948f02464894c(0xf960)
response[1071] = 0x6c8948fc8949e024(0xf968)
response[1072] = 0x471707(0x94ad8)
response[1073] = 0x6c8948fc8949e024(0xf968)
response[1074] = 0x6c8948fc8949e024(0xf968)
response[1075] = 0x48f8246c894ce824(0xf970)
response[1076] = 0x7fffffffeb20(0x94ae0)
response[1077] = 0x48f8246c894ce824(0xf970)
response[1078] = 0x0(0x94af0)
response[1079] = 0x48f8246c894ce824(0xf970)
response[1080] = 0xd76058b4828ec83(0xf978)
response[1081] = 0xd76058b4828ec83(0xf978)
response[xxx] = 0x482974c085480017(0xf980)
response[xxx] = 0x4105e0(0x806f8)
response[1084] = 0x482974c085480017(0xf980)
response[1085] = 0x482974c085480017(0xf980)
response[1086] = 0x482974c085480017(0xf980)
response[1087] = 0x245c8b482824748b(0xf988)
response[1088] = 0x432d2e(0x94af8)
response[1089] = 0x245c8b482824748b(0xf988)
response[1090] = 0x246c8b48c3894908(0xf990)
response[1091] = 0x471707(0x94ad8)
response[1092] = 0x246c8b48c3894908(0xf990)
response[1093] = 0x246c8b48c3894908(0xf990)
response[1094] = 0x8b4c1824648b4c10(0xf998)
response[1095] = 0x7fffffffeb20(0x94ae0)
response[1096] = 0x8b4c1824648b4c10(0xf998)
response[1097] = 0x1(0x94ae8)
response[1098] = 0x8b4c1824648b4c10(0xf998)
response[1099] = 0x4128c4834820246c(0xf9a0)
response[1100] = 0x0(0x94af0)
response[1101] = 0x4128c4834820246c(0xf9a0)
response[1102] = 0x4128c4834820246c(0xf9a0)
response[1103] = 0x906666906666e3ff(0xf9a8)
response[xxx] = 0x905c748fb894853(0x105e0)
response[1105] = 0x471707(0x94af0)
response[1106] = 0x905c748fb894853(0x105e0)
response[1107] = 0x905c748fb894853(0x105e0)
response[1108] = 0xe800000000001701(0x105e8)
response[1109] = 0x0(0x806f8)
response[1110] = 0xe800000000001701(0x105e8)
response[1111] = 0x5bdf8948fffffcac(0x105f0)
response[1112] = 0x4105f4(0x94ae8)
response[xxx] = 0x6c8948e8245c8948(0x102a0)
response[1114] = 0x18(0x94ad0)
response[1115] = 0x6c8948e8245c8948(0x102a0)
response[1116] = 0x48f82464894cf024(0x102a8)
response[1117] = 0x7fffffffeb20(0x94ad8)
response[1118] = 0x48f82464894cf024(0x102a8)
response[1119] = 0x1(0x94ae0)
response[1120] = 0x48f82464894cf024(0x102a8)
response[1121] = 0x170427058b28ec83(0x102b0)
response[1122] = 0x170427058b28ec83(0x102b0)
response[1123] = 0x5c8b481478c08500(0x102b8)
response[1124] = 0x5555ffffffff(0x806e0)
response[1125] = 0x5c8b481478c08500(0x102b8)
response[1126] = 0x5c8b481478c08500(0x102b8)
response[xxx] = 0x5c700000000bbc3(0x102d0)
response[1128] = 0x5c700000000bbc3(0x102d0)
response[1129] = 0x170400(0x102d8)
response[1130] = 0x555500000000(0x806e0)
response[1131] = 0x182a5d05c748(0x102e0)
response[1132] = 0x182a6705c7000200(0x102e8)
response[1134] = 0x182a6705c7000200(0x102e8)
response[1135] = 0x5c7480001000000(0x102f0)
response[1136] = 0x555500010000(0x92d5c)
response[1137] = 0x5c7480001000000(0x102f0)
response[1138] = 0x2000000182a50(0x102f8)
response[1139] = 0x20000(0x92d50)
response[xxx] = 0x182a3505c748(0x10300)
response[1141] = 0x3500e8000200(0x10308)
response[1142] = 0x20000(0x92d40)
response[1143] = 0x3500e8000200(0x10308)
response[xxx] = 0xb80017fd29158b48(0x13810)
response[1146] = 0x1000(0x93540)
response[1147] = 0xb80017fd29158b48(0x13810)
response[1148] = 0xfd2854800001000(0x13818)
response[1149] = 0xfd2854800001000(0x13818)
response[1150] = 0xfd2854800001000(0x13818)
response[1151] = 0x9090909090c3c245(0x13820)
response[1152] = 0x9090909090c3c245(0x13820)
response[1153] = 0x410310(0x94ab8)
response[1154] = 0x182a4b0589db8548(0x10310)
response[1155] = 0x182a4b0589db8548(0x10310)
response[1156] = 0x31000000a4840f00(0x10318)
response[1157] = 0x1000(0x92d64)
response[1158] = 0x31000000a4840f00(0x10318)
response[xxx] = 0x1820b305c7edeb08(0x103c0)
response[1160] = 0xff59e90000000000(0x103c8)
response[1162] = 0xff59e90000000000(0x103c8)
response[1163] = 0x18209b05c748ffff(0x103d0)
response[1164] = 0xc748db8548ffbefc(0x10328)
response[1165] = 0xc748db8548ffbefc(0x10328)
response[1166] = 0x592480001829ef05(0x10330)
response[1167] = 0x31000000a0840f00(0x10338)
response[xxx] = 0x31000000a0840f00(0x10338)
response[1170] = 0xc782eb0059248000(0x103d8)
response[1171] = 0x1829b705(0x103e0)
response[1172] = 0x7880ffffff5de900(0x103e8)
response[1174] = 0x7880ffffff5de900(0x103e8)
response[xxx] = 0xb8ffbefc(0x10348)
response[1176] = 0x2480be7d74c08548(0x10350)
response[1177] = 0x2480be7d74c08548(0x10350)
response[1178] = 0x18209b05c748ffff(0x103d0)
response[1179] = 0xc782eb0059248000(0x103d8)
response[1181] = 0xc782eb0059248000(0x103d8)
response[1182] = 0x8b90057fb08b8ff(0x10360)
response[1183] = 0x8b90057fb08b8ff(0x10360)
response[1184] = 0x774c085480057fb(0x10368)
response[1185] = 0x774c085480057fb(0x10368)
response[1186] = 0x774c085480057fb(0x10368)
response[1187] = 0xba0016f7910d8b48(0x10370)
response[xxx] = 0x0(0x7fb08)
response[1189] = 0xba0016f7910d8b48(0x10370)
response[1190] = 0x40c680be0040c750(0x10378)
response[1191] = 0x40c680be0040c750(0x10378)
response[xxx] = 0x45e80040c580bf00(0x10380)
response[1193] = 0x45e80040c580bf00(0x10380)
response[1194] = 0x45e80040c580bf00(0x10380)
response[1195] = 0x2a66058b48000040(0x10388)
response[1196] = 0x41038b(0x94ab8)
response[xxx] = 0x6c8948d0245c8948(0x143d0)
response[1198] = 0x0(0x94a88)
response[1199] = 0x6c8948d0245c8948(0x143d0)
response[1200] = 0x2464894cdb31d824(0x143d8)
response[1201] = 0x7fffffffeb20(0x94a90)
response[1202] = 0x2464894cdb31d824(0x143d8)
response[1203] = 0x2464894cdb31d824(0x143d8)
response[1204] = 0xed31e8246c894ce0(0x143e0)
response[1205] = 0x1(0x94a98)
response[1206] = 0xed31e8246c894ce0(0x143e0)
response[1207] = 0x0(0x94aa0)
response[1208] = 0xed31e8246c894ce0(0x143e0)
response[1209] = 0x7c894cf02474894c(0x143e8)
response[1210] = 0x7fffffffedc8(0x94aa8)
response[1211] = 0x7c894cf02474894c(0x143e8)
response[1212] = 0xec8348e43145f824(0x143f0)
response[1213] = 0x0(0x94ab0)
response[1214] = 0xec8348e43145f824(0x143f0)
response[1215] = 0xec8348e43145f824(0x143f0)
response[1216] = 0x49fd8949ff854838(0x143f8)
response[1217] = 0x49fd8949ff854838(0x143f8)
response[1218] = 0x49fd8949ff854838(0x143f8)
response[1219] = 0x49fd8949ff854838(0x143f8)
response[xxx] = 0x894924148948f789(0x14400)
response[1221] = 0x894924148948f789(0x14400)
response[1222] = 0x40c750(0x94a80)
response[1223] = 0x894924148948f789(0x14400)
response[1224] = 0x20bf1e74ce(0x14408)
response[1225] = 0x20bf1e74ce(0x14408)
response[1226] = 0x20bf1e74ce(0x14408)
response[1227] = 0xc08548ffffb54be8(0x14410)
response[xxx] = 0x5c8948f02464894c(0xf960)
response[1230] = 0x0(0x94a68)
response[1231] = 0x5c8948f02464894c(0xf960)
response[1232] = 0x6c8948fc8949e024(0xf968)
response[1233] = 0x0(0x94a58)
response[1234] = 0x6c8948fc8949e024(0xf968)
response[1235] = 0x6c8948fc8949e024(0xf968)
response[1236] = 0x48f8246c894ce824(0xf970)
response[1237] = 0x0(0x94a60)
response[1238] = 0x48f8246c894ce824(0xf970)
response[1239] = 0x40c580(0x94a70)
response[1240] = 0x48f8246c894ce824(0xf970)
response[1241] = 0xd76058b4828ec83(0xf978)
response[1242] = 0xd76058b4828ec83(0xf978)
response[xxx] = 0x482974c085480017(0xf980)
response[xxx] = 0x0(0x806f8)
response[1245] = 0x482974c085480017(0xf980)
response[1246] = 0x482974c085480017(0xf980)
response[1247] = 0xc0854800000000b8(0xf9b0)
response[1248] = 0xc0854800000000b8(0xf9b0)
response[1249] = 0xbf063fe8ff317474(0xf9b8)
response[xxx] = 0x8b48c328c4834820(0xfa28)
response[1251] = 0x448deb00182a432d(0xfa30)
response[1252] = 0x592480(0x92478)
response[1253] = 0x448deb00182a432d(0xfa30)
response[xxx] = 0x48ed8548c58948ff(0xf9c0)
response[1255] = 0x48ed8548c58948ff(0xf9c0)
response[1256] = 0x82840feb89(0xf9c8)
response[1257] = 0x82840feb89(0xf9c8)
response[1258] = 0xc0854800000000b8(0xf9d0)
response[1259] = 0xc0854800000000b8(0xf9d0)
response[1260] = 0x61ee8ef89485d74(0xf9d8)
response[1261] = 0x448deb00182a432d(0xfa30)
response[1262] = 0x1275db8545005d8b(0xfa38)
response[xxx] = 0x555500000000(0x92480)
response[1264] = 0x1275db8545005d8b(0xfa38)
response[1265] = 0x1275db8545005d8b(0xfa38)
response[xxx] = 0xeb000000010045c7(0xfa40)
response[1267] = 0x555500000001(0x92480)
response[1268] = 0xeb000000010045c7(0xfa40)
response[1269] = 0x900000000003c79d(0xfa48)
response[1270] = 0xc0316c75c085ffbf(0xf9e0)
response[1271] = 0xe6894c2874db8548(0xf9e8)
response[1272] = 0xe6894c2874db8548(0xf9e8)
response[1273] = 0xe6894c2874db8548(0xf9e8)
response[1274] = 0xffffe388e8df8948(0xf9f0)
response[1275] = 0xffffe388e8df8948(0xf9f0)
response[xxx] = 0x8949554156415741(0xdd80)
response[1278] = 0x40c680(0x94a40)
response[1279] = 0x8949554156415741(0xdd80)
response[1281] = 0x8949554156415741(0xdd80)
response[1282] = 0x40c580(0x94a30)
response[1283] = 0x8949554156415741(0xdd80)
response[1284] = 0xec834853555441fd(0xdd88)
response[1285] = 0xec834853555441fd(0xdd88)
response[1286] = 0x20(0x94a28)
response[1287] = 0xec834853555441fd(0xdd88)
response[1288] = 0x592480(0x94a20)
response[1289] = 0xec834853555441fd(0xdd88)
response[1290] = 0x592480(0x94a18)
response[1291] = 0xec834853555441fd(0xdd88)
response[1292] = 0x5c870fbffe834848(0xdd90)
response[1293] = 0x5c870fbffe834848(0xdd90)
response[1294] = 0x5c870fbffe834848(0xdd90)
response[1295] = 0x4817468d48000004(0xdd98)
response[1296] = 0x4817468d48000004(0xdd98)
response[1297] = 0x4817468d48000004(0xdd98)
response[1298] = 0x20402444c7(0xdda0)
response[1299] = 0x20(0x94a10)
response[1300] = 0x48c28948284f8b48(0xdda8)
response[1301] = 0x0(0x924a8)
response[1302] = 0x48c28948284f8b48(0xdda8)
response[1303] = 0x48c28948284f8b48(0xdda8)
response[1304] = 0x4820f88348f0e283(0xddb0)
response[1305] = 0x4820f88348f0e283(0xddb0)
response[1306] = 0x4820f88348f0e283(0xddb0)
response[1307] = 0xd13948402454420f(0xddb8)
response[1308] = 0x20(0x94a10)
response[1309] = 0xd13948402454420f(0xddb8)
response[xxx] = 0x8b4e724024548948(0xddc0)
response[1311] = 0x30(0x94a10)
response[1312] = 0x8b4e724024548948(0xddc0)
response[xxx] = 0x7c8148c35f415e41(0xde10)
response[1314] = 0x6477000001ff4024(0xde18)
response[1315] = 0x30(0x94a10)
response[1316] = 0x6477000001ff4024(0xde18)
response[1317] = 0xefc14140247c8b44(0xde20)
response[1318] = 0x555500000030(0x94a10)
response[1319] = 0xefc14140247c8b44(0xde20)
response[1320] = 0x49c0893f048d4303(0xde28)
response[1321] = 0x49c0893f048d4303(0xde28)
response[1322] = 0x49c0893f048d4303(0xde28)
response[1323] = 0x49c0893f048d4303(0xde28)
response[1324] = 0x4c00000088c5bc8d(0xde30)
response[1325] = 0x4c00000088c5bc8d(0xde30)
response[1326] = 0x6474fc394918678b(0xde38)
response[xxx] = 0x0(0x92580)
response[1328] = 0x6474fc394918678b(0xde38)
response[1329] = 0x6474fc394918678b(0xde38)
response[xxx] = 0x243840fe4854d(0xde40)
response[1331] = 0x243840fe4854d(0xde40)
response[1332] = 0x8b494024448b4800(0xde48)
response[xxx] = 0xe8ef894cfffffe0f(0xe088)
response[1334] = 0xe8ef894cfffffe0f(0xe088)
response[1335] = 0xfffe0be9fffff1ec(0xe090)
response[xxx] = 0x415641ff89495741(0xd280)
response[1338] = 0x6(0x949c0)
response[1339] = 0x415641ff89495741(0xd280)
response[1340] = 0x415641ff89495741(0xd280)
response[xxx] = 0x415641ff89495741(0xd280)
response[1343] = 0xec83485355544155(0xd288)
response[1344] = 0x592480(0x949b0)
response[1345] = 0xec83485355544155(0xd288)
response[1346] = 0x0(0x949a8)
response[1347] = 0xec83485355544155(0xd288)
response[1348] = 0x592480(0x949a0)
response[1349] = 0xec83485355544155(0xd288)
response[1350] = 0x592480(0x94998)
response[1351] = 0xec83485355544155(0xd288)
response[1352] = 0xc0854828478b4818(0xd290)
response[1353] = 0xc0854828478b4818(0xd290)
response[1354] = 0x0(0x924a8)
response[1355] = 0xc0854828478b4818(0xd290)
response[1356] = 0x83480000014c840f(0xd298)
response[xxx] = 0x5d5b18c48348c35f(0xd3e8)
response[1358] = 0x5d5b18c48348c35f(0xd3e8)
response[1359] = 0x592480(0x94998)
response[1360] = 0x5d5b18c48348c35f(0xd3e8)
response[1361] = 0x592480(0x949a0)
response[1362] = 0x5f415e415d415c41(0xd3f0)
response[1363] = 0x0(0x949a8)
response[1364] = 0x5f415e415d415c41(0xd3f0)
response[1365] = 0x592480(0x949b0)
response[1366] = 0x5f415e415d415c41(0xd3f0)
response[1367] = 0x0(0x949b8)
response[1368] = 0x5f415e415d415c41(0xd3f0)
response[1369] = 0x6(0x949c0)
response[1370] = 0x53d8bfffff093e9(0xd3f8)
response[xxx] = 0xba00000098878d48(0xc490)
response[1372] = 0xba00000098878d48(0xc490)
response[1373] = 0x906666660000007e(0xc498)
response[1374] = 0x906666660000007e(0xc498)
response[1375] = 0x1040894818408948(0xc4a0)
response[1377] = 0x1040894818408948(0xc4a0)
response[1378] = 0x592518(0x92528)
response[1379] = 0xf079caff10c08348(0xc4a8)
response[1380] = 0xf079caff10c08348(0xc4a8)
response[1381] = 0xf079caff10c08348(0xc4a8)
response[1382] = 0x1040894818408948(0xc4a0)
response[1384] = 0x1040894818408948(0xc4a0)
response[1385] = 0x592528(0x92538)
response[1386] = 0xf079caff10c08348(0xc4a8)
response[1387] = 0xf079caff10c08348(0xc4a8)
response[1388] = 0xf079caff10c08348(0xc4a8)
response[1389] = 0x1040894818408948(0xc4a0)
response[1390] = 0x592538(0x92550)
response[1391] = 0x1040894818408948(0xc4a0)
response[1392] = 0x592538(0x92548)
response[1393] = 0xf079caff10c08348(0xc4a8)
response[1394] = 0xf079caff10c08348(0xc4a8)
response[1395] = 0xf079caff10c08348(0xc4a8)
response[1396] = 0x1040894818408948(0xc4a0)
response[1397] = 0x592548(0x92560)
response[1398] = 0x1040894818408948(0xc4a0)
response[1399] = 0x592548(0x92558)
response[1400] = 0xf079caff10c08348(0xc4a8)
response[1401] = 0xf079caff10c08348(0xc4a8)
response[1402] = 0xf079caff10c08348(0xc4a8)
response[1403] = 0x1040894818408948(0xc4a0)
response[1404] = 0x592558(0x92570)
response[1405] = 0x1040894818408948(0xc4a0)
response[1406] = 0x592558(0x92568)
response[1407] = 0xf079caff10c08348(0xc4a8)
response[1408] = 0xf079caff10c08348(0xc4a8)
response[1409] = 0xf079caff10c08348(0xc4a8)
response[1410] = 0x1040894818408948(0xc4a0)
response[1412] = 0x1040894818408948(0xc4a0)
response[1413] = 0x592568(0x92578)
response[1414] = 0xf079caff10c08348(0xc4a8)
response[1415] = 0xf079caff10c08348(0xc4a8)
response[1416] = 0xf079caff10c08348(0xc4a8)
response[1417] = 0x1040894818408948(0xc4a0)
response[1418] = 0x592578(0x92590)
response[1419] = 0x1040894818408948(0xc4a0)
response[1420] = 0x592578(0x92588)
response[1421] = 0xf079caff10c08348(0xc4a8)
response[1422] = 0xf079caff10c08348(0xc4a8)
response[1423] = 0xf079caff10c08348(0xc4a8)
response[1424] = 0x1040894818408948(0xc4a0)
response[1425] = 0x592588(0x925a0)
response[1426] = 0x1040894818408948(0xc4a0)
response[1427] = 0x592588(0x92598)
response[1428] = 0xf079caff10c08348(0xc4a8)
response[1429] = 0xf079caff10c08348(0xc4a8)
response[1430] = 0xf079caff10c08348(0xc4a8)
response[1431] = 0x1040894818408948(0xc4a0)
response[1432] = 0x592598(0x925b0)
response[1433] = 0x1040894818408948(0xc4a0)
response[1434] = 0x592598(0x925a8)
response[1435] = 0xf079caff10c08348(0xc4a8)
response[1436] = 0xf079caff10c08348(0xc4a8)
response[1437] = 0xf079caff10c08348(0xc4a8)
response[1438] = 0x1040894818408948(0xc4a0)
response[1440] = 0x1040894818408948(0xc4a0)
response[1441] = 0x5925a8(0x925b8)
response[1442] = 0xf079caff10c08348(0xc4a8)
response[1443] = 0xf079caff10c08348(0xc4a8)
response[1444] = 0xf079caff10c08348(0xc4a8)
response[1445] = 0x1040894818408948(0xc4a0)
response[1446] = 0x5925b8(0x925d0)
response[1447] = 0x1040894818408948(0xc4a0)
response[1448] = 0x5925b8(0x925c8)
response[1449] = 0xf079caff10c08348(0xc4a8)
response[1450] = 0xf079caff10c08348(0xc4a8)
response[1451] = 0xf079caff10c08348(0xc4a8)
response[1452] = 0x1040894818408948(0xc4a0)
response[1453] = 0x5925c8(0x925e0)
response[1454] = 0x1040894818408948(0xc4a0)
response[1455] = 0x5925c8(0x925d8)
response[1456] = 0xf079caff10c08348(0xc4a8)
response[1457] = 0xf079caff10c08348(0xc4a8)
response[1458] = 0xf079caff10c08348(0xc4a8)
response[1459] = 0x1040894818408948(0xc4a0)
response[1460] = 0x5925d8(0x925f0)
response[1461] = 0x1040894818408948(0xc4a0)
response[1462] = 0x5925d8(0x925e8)
response[1463] = 0xf079caff10c08348(0xc4a8)
response[1464] = 0xf079caff10c08348(0xc4a8)
response[1465] = 0xf079caff10c08348(0xc4a8)
response[1466] = 0x1040894818408948(0xc4a0)
response[1468] = 0x1040894818408948(0xc4a0)
response[1469] = 0x5925e8(0x925f8)
response[1470] = 0xf079caff10c08348(0xc4a8)
response[1471] = 0xf079caff10c08348(0xc4a8)
response[1472] = 0xf079caff10c08348(0xc4a8)
response[1473] = 0x1040894818408948(0xc4a0)
response[1474] = 0x5925f8(0x92610)
response[1475] = 0x1040894818408948(0xc4a0)
response[1476] = 0x5925f8(0x92608)
response[1477] = 0xf079caff10c08348(0xc4a8)
response[1478] = 0xf079caff10c08348(0xc4a8)
response[1479] = 0xf079caff10c08348(0xc4a8)
response[1480] = 0x1040894818408948(0xc4a0)
response[1481] = 0x592608(0x92620)
response[1482] = 0x1040894818408948(0xc4a0)
response[1483] = 0x592608(0x92618)
response[1484] = 0xf079caff10c08348(0xc4a8)
response[1485] = 0xf079caff10c08348(0xc4a8)
response[1486] = 0xf079caff10c08348(0xc4a8)
response[1487] = 0x1040894818408948(0xc4a0)
response[1488] = 0x592618(0x92630)
response[1489] = 0x1040894818408948(0xc4a0)
response[1490] = 0x592618(0x92628)
response[1491] = 0xf079caff10c08348(0xc4a8)
response[1492] = 0xf079caff10c08348(0xc4a8)
response[1493] = 0xf079caff10c08348(0xc4a8)
response[1494] = 0x1040894818408948(0xc4a0)
response[1496] = 0x1040894818408948(0xc4a0)
response[1497] = 0x592628(0x92638)
response[1498] = 0xf079caff10c08348(0xc4a8)
response[1499] = 0xf079caff10c08348(0xc4a8)
response[1500] = 0xf079caff10c08348(0xc4a8)
response[1501] = 0x1040894818408948(0xc4a0)
response[1502] = 0x592638(0x92650)
response[1503] = 0x1040894818408948(0xc4a0)
response[1504] = 0x592638(0x92648)
response[1505] = 0xf079caff10c08348(0xc4a8)
response[1506] = 0xf079caff10c08348(0xc4a8)
response[1507] = 0xf079caff10c08348(0xc4a8)
response[1508] = 0x1040894818408948(0xc4a0)
response[1509] = 0x592648(0x92660)
response[1510] = 0x1040894818408948(0xc4a0)
response[1511] = 0x592648(0x92658)
response[1512] = 0xf079caff10c08348(0xc4a8)
response[1513] = 0xf079caff10c08348(0xc4a8)
response[1514] = 0xf079caff10c08348(0xc4a8)
response[1515] = 0x1040894818408948(0xc4a0)
response[1516] = 0x592658(0x92670)
response[1517] = 0x1040894818408948(0xc4a0)
response[1518] = 0x592658(0x92668)
response[1519] = 0xf079caff10c08348(0xc4a8)
response[1520] = 0xf079caff10c08348(0xc4a8)
response[1521] = 0xf079caff10c08348(0xc4a8)
response[1522] = 0x1040894818408948(0xc4a0)
response[1524] = 0x1040894818408948(0xc4a0)
response[1526] = 0xf079caff10c08348(0xc4a8)
response[1527] = 0xf079caff10c08348(0xc4a8)
response[1528] = 0xf079caff10c08348(0xc4a8)
response[1529] = 0x1040894818408948(0xc4a0)
response[1530] = 0x592678(0x92690)
response[1531] = 0x1040894818408948(0xc4a0)
response[1532] = 0x592678(0x92688)
response[1533] = 0xf079caff10c08348(0xc4a8)
response[1534] = 0xf079caff10c08348(0xc4a8)
response[1535] = 0xf079caff10c08348(0xc4a8)
response[1536] = 0x1040894818408948(0xc4a0)
response[1537] = 0x592688(0x926a0)
response[1538] = 0x1040894818408948(0xc4a0)
response[1539] = 0x592688(0x92698)
response[1540] = 0xf079caff10c08348(0xc4a8)
response[1541] = 0xf079caff10c08348(0xc4a8)
response[1542] = 0xf079caff10c08348(0xc4a8)
response[1543] = 0x1040894818408948(0xc4a0)
response[1544] = 0x592698(0x926b0)
response[1545] = 0x1040894818408948(0xc4a0)
response[1546] = 0x592698(0x926a8)
response[1547] = 0xf079caff10c08348(0xc4a8)
response[1548] = 0xf079caff10c08348(0xc4a8)
response[1549] = 0xf079caff10c08348(0xc4a8)
response[1550] = 0x1040894818408948(0xc4a0)
response[1552] = 0x1040894818408948(0xc4a0)
response[1553] = 0x5926a8(0x926b8)
response[1554] = 0xf079caff10c08348(0xc4a8)
response[1555] = 0xf079caff10c08348(0xc4a8)
response[1556] = 0xf079caff10c08348(0xc4a8)
response[1557] = 0x1040894818408948(0xc4a0)
response[1558] = 0x5926b8(0x926d0)
response[1559] = 0x1040894818408948(0xc4a0)
response[1560] = 0x5926b8(0x926c8)
response[1561] = 0xf079caff10c08348(0xc4a8)
response[1562] = 0xf079caff10c08348(0xc4a8)
response[1563] = 0xf079caff10c08348(0xc4a8)
response[1564] = 0x1040894818408948(0xc4a0)
response[1565] = 0x5926c8(0x926e0)
response[1566] = 0x1040894818408948(0xc4a0)
response[1567] = 0x5926c8(0x926d8)
response[1568] = 0xf079caff10c08348(0xc4a8)
response[1569] = 0xf079caff10c08348(0xc4a8)
response[1570] = 0xf079caff10c08348(0xc4a8)
response[1571] = 0x1040894818408948(0xc4a0)
response[1572] = 0x5926d8(0x926f0)
response[1573] = 0x1040894818408948(0xc4a0)
response[1574] = 0x5926d8(0x926e8)
response[1575] = 0xf079caff10c08348(0xc4a8)
response[1576] = 0xf079caff10c08348(0xc4a8)
response[1577] = 0xf079caff10c08348(0xc4a8)
response[1578] = 0x1040894818408948(0xc4a0)
response[1580] = 0x1040894818408948(0xc4a0)
response[1581] = 0x5926e8(0x926f8)
response[1582] = 0xf079caff10c08348(0xc4a8)
response[1583] = 0xf079caff10c08348(0xc4a8)
response[1584] = 0xf079caff10c08348(0xc4a8)
response[1585] = 0x1040894818408948(0xc4a0)
response[1586] = 0x5926f8(0x92710)
response[1587] = 0x1040894818408948(0xc4a0)
response[1588] = 0x5926f8(0x92708)
response[1589] = 0xf079caff10c08348(0xc4a8)
response[1590] = 0xf079caff10c08348(0xc4a8)
response[1591] = 0xf079caff10c08348(0xc4a8)
response[1592] = 0x1040894818408948(0xc4a0)
response[1593] = 0x592708(0x92720)
response[1594] = 0x1040894818408948(0xc4a0)
response[1595] = 0x592708(0x92718)
response[1596] = 0xf079caff10c08348(0xc4a8)
response[1597] = 0xf079caff10c08348(0xc4a8)
response[1598] = 0xf079caff10c08348(0xc4a8)
response[1599] = 0x1040894818408948(0xc4a0)
response[1600] = 0x592718(0x92730)
response[1601] = 0x1040894818408948(0xc4a0)
response[1602] = 0x592718(0x92728)
response[1603] = 0xf079caff10c08348(0xc4a8)
response[1604] = 0xf079caff10c08348(0xc4a8)
response[1605] = 0xf079caff10c08348(0xc4a8)
response[1606] = 0x1040894818408948(0xc4a0)
response[1608] = 0x1040894818408948(0xc4a0)
response[1609] = 0x592728(0x92738)
response[1610] = 0xf079caff10c08348(0xc4a8)
response[1611] = 0xf079caff10c08348(0xc4a8)
response[1612] = 0xf079caff10c08348(0xc4a8)
response[1613] = 0x1040894818408948(0xc4a0)
response[1614] = 0x592738(0x92750)
response[1615] = 0x1040894818408948(0xc4a0)
response[1616] = 0x592738(0x92748)
response[1617] = 0xf079caff10c08348(0xc4a8)
response[1618] = 0xf079caff10c08348(0xc4a8)
response[1619] = 0xf079caff10c08348(0xc4a8)
response[1620] = 0x1040894818408948(0xc4a0)
response[1621] = 0x592748(0x92760)
response[1622] = 0x1040894818408948(0xc4a0)
response[1623] = 0x592748(0x92758)
response[1624] = 0xf079caff10c08348(0xc4a8)
response[1625] = 0xf079caff10c08348(0xc4a8)
response[1626] = 0xf079caff10c08348(0xc4a8)
response[1627] = 0x1040894818408948(0xc4a0)
response[1628] = 0x592758(0x92770)
response[1629] = 0x1040894818408948(0xc4a0)
response[1630] = 0x592758(0x92768)
response[1631] = 0xf079caff10c08348(0xc4a8)
response[1632] = 0xf079caff10c08348(0xc4a8)
response[1633] = 0xf079caff10c08348(0xc4a8)
response[1634] = 0x1040894818408948(0xc4a0)
response[1636] = 0x1040894818408948(0xc4a0)
response[1637] = 0x592768(0x92778)
response[1638] = 0xf079caff10c08348(0xc4a8)
response[1639] = 0xf079caff10c08348(0xc4a8)
response[1640] = 0xf079caff10c08348(0xc4a8)
response[1641] = 0x1040894818408948(0xc4a0)
response[1642] = 0x592778(0x92790)
response[1643] = 0x1040894818408948(0xc4a0)
response[1644] = 0x592778(0x92788)
response[1645] = 0xf079caff10c08348(0xc4a8)
response[1646] = 0xf079caff10c08348(0xc4a8)
response[1647] = 0xf079caff10c08348(0xc4a8)
response[1648] = 0x1040894818408948(0xc4a0)
response[1649] = 0x592788(0x927a0)
response[1650] = 0x1040894818408948(0xc4a0)
response[1651] = 0x592788(0x92798)
response[1652] = 0xf079caff10c08348(0xc4a8)
response[1653] = 0xf079caff10c08348(0xc4a8)
response[1654] = 0xf079caff10c08348(0xc4a8)
response[1655] = 0x1040894818408948(0xc4a0)
response[1656] = 0x592798(0x927b0)
response[1657] = 0x1040894818408948(0xc4a0)
response[1658] = 0x592798(0x927a8)
response[1659] = 0xf079caff10c08348(0xc4a8)
response[1660] = 0xf079caff10c08348(0xc4a8)
response[1661] = 0xf079caff10c08348(0xc4a8)
response[1662] = 0x1040894818408948(0xc4a0)
response[1664] = 0x1040894818408948(0xc4a0)
response[1665] = 0x5927a8(0x927b8)
response[1666] = 0xf079caff10c08348(0xc4a8)
response[1667] = 0xf079caff10c08348(0xc4a8)
response[1668] = 0xf079caff10c08348(0xc4a8)
response[1669] = 0x1040894818408948(0xc4a0)
response[1670] = 0x5927b8(0x927d0)
response[1671] = 0x1040894818408948(0xc4a0)
response[1672] = 0x5927b8(0x927c8)
response[1673] = 0xf079caff10c08348(0xc4a8)
response[1674] = 0xf079caff10c08348(0xc4a8)
response[1675] = 0xf079caff10c08348(0xc4a8)
response[1676] = 0x1040894818408948(0xc4a0)
response[1677] = 0x5927c8(0x927e0)
response[1678] = 0x1040894818408948(0xc4a0)
response[1679] = 0x5927c8(0x927d8)
response[1680] = 0xf079caff10c08348(0xc4a8)
response[1681] = 0xf079caff10c08348(0xc4a8)
response[1682] = 0xf079caff10c08348(0xc4a8)
response[1683] = 0x1040894818408948(0xc4a0)
response[1684] = 0x5927d8(0x927f0)
response[1685] = 0x1040894818408948(0xc4a0)
response[1686] = 0x5927d8(0x927e8)
response[1687] = 0xf079caff10c08348(0xc4a8)
response[1688] = 0xf079caff10c08348(0xc4a8)
response[1689] = 0xf079caff10c08348(0xc4a8)
response[1690] = 0x1040894818408948(0xc4a0)
response[1692] = 0x1040894818408948(0xc4a0)
response[1693] = 0x5927e8(0x927f8)
response[1694] = 0xf079caff10c08348(0xc4a8)
response[1695] = 0xf079caff10c08348(0xc4a8)
response[1696] = 0xf079caff10c08348(0xc4a8)
response[1697] = 0x1040894818408948(0xc4a0)
response[1698] = 0x5927f8(0x92810)
response[1699] = 0x1040894818408948(0xc4a0)
response[1700] = 0x5927f8(0x92808)
response[1701] = 0xf079caff10c08348(0xc4a8)
response[1702] = 0xf079caff10c08348(0xc4a8)
response[1703] = 0xf079caff10c08348(0xc4a8)
response[1704] = 0x1040894818408948(0xc4a0)
response[1705] = 0x592808(0x92820)
response[1706] = 0x1040894818408948(0xc4a0)
response[1707] = 0x592808(0x92818)
response[1708] = 0xf079caff10c08348(0xc4a8)
response[1709] = 0xf079caff10c08348(0xc4a8)
response[1710] = 0xf079caff10c08348(0xc4a8)
response[1711] = 0x1040894818408948(0xc4a0)
response[1712] = 0x592818(0x92830)
response[1713] = 0x1040894818408948(0xc4a0)
response[1714] = 0x592818(0x92828)
response[1715] = 0xf079caff10c08348(0xc4a8)
response[1716] = 0xf079caff10c08348(0xc4a8)
response[1717] = 0xf079caff10c08348(0xc4a8)
response[1718] = 0x1040894818408948(0xc4a0)
response[1720] = 0x1040894818408948(0xc4a0)
response[1721] = 0x592828(0x92838)
response[1722] = 0xf079caff10c08348(0xc4a8)
response[1723] = 0xf079caff10c08348(0xc4a8)
response[1724] = 0xf079caff10c08348(0xc4a8)
response[1725] = 0x1040894818408948(0xc4a0)
response[1726] = 0x592838(0x92850)
response[1727] = 0x1040894818408948(0xc4a0)
response[1728] = 0x592838(0x92848)
response[1729] = 0xf079caff10c08348(0xc4a8)
response[1730] = 0xf079caff10c08348(0xc4a8)
response[1731] = 0xf079caff10c08348(0xc4a8)
response[1732] = 0x1040894818408948(0xc4a0)
response[1733] = 0x592848(0x92860)
response[1734] = 0x1040894818408948(0xc4a0)
response[1735] = 0x592848(0x92858)
response[1736] = 0xf079caff10c08348(0xc4a8)
response[1737] = 0xf079caff10c08348(0xc4a8)
response[1738] = 0xf079caff10c08348(0xc4a8)
response[1739] = 0x1040894818408948(0xc4a0)
response[1740] = 0x592858(0x92870)
response[1741] = 0x1040894818408948(0xc4a0)
response[1742] = 0x592858(0x92868)
response[1743] = 0xf079caff10c08348(0xc4a8)
response[1744] = 0xf079caff10c08348(0xc4a8)
response[1745] = 0xf079caff10c08348(0xc4a8)
response[1746] = 0x1040894818408948(0xc4a0)
response[1748] = 0x1040894818408948(0xc4a0)
response[1750] = 0xf079caff10c08348(0xc4a8)
response[1751] = 0xf079caff10c08348(0xc4a8)
response[1752] = 0xf079caff10c08348(0xc4a8)
response[1753] = 0x1040894818408948(0xc4a0)
response[1754] = 0x592878(0x92890)
response[1755] = 0x1040894818408948(0xc4a0)
response[1756] = 0x592878(0x92888)
response[1757] = 0xf079caff10c08348(0xc4a8)
response[1758] = 0xf079caff10c08348(0xc4a8)
response[1759] = 0xf079caff10c08348(0xc4a8)
response[1760] = 0x1040894818408948(0xc4a0)
response[1761] = 0x592888(0x928a0)
response[1762] = 0x1040894818408948(0xc4a0)
response[1763] = 0x592888(0x92898)
response[1764] = 0xf079caff10c08348(0xc4a8)
response[1765] = 0xf079caff10c08348(0xc4a8)
response[1766] = 0xf079caff10c08348(0xc4a8)
response[1767] = 0x1040894818408948(0xc4a0)
response[1768] = 0x592898(0x928b0)
response[1769] = 0x1040894818408948(0xc4a0)
response[1770] = 0x592898(0x928a8)
response[1771] = 0xf079caff10c08348(0xc4a8)
response[1772] = 0xf079caff10c08348(0xc4a8)
response[1773] = 0xf079caff10c08348(0xc4a8)
response[1774] = 0x1040894818408948(0xc4a0)
response[1776] = 0x1040894818408948(0xc4a0)
response[1777] = 0x5928a8(0x928b8)
response[1778] = 0xf079caff10c08348(0xc4a8)
response[1779] = 0xf079caff10c08348(0xc4a8)
response[1780] = 0xf079caff10c08348(0xc4a8)
response[1781] = 0x1040894818408948(0xc4a0)
response[1782] = 0x5928b8(0x928d0)
response[1783] = 0x1040894818408948(0xc4a0)
response[1784] = 0x5928b8(0x928c8)
response[1785] = 0xf079caff10c08348(0xc4a8)
response[1786] = 0xf079caff10c08348(0xc4a8)
response[1787] = 0xf079caff10c08348(0xc4a8)
response[1788] = 0x1040894818408948(0xc4a0)
response[1789] = 0x5928c8(0x928e0)
response[1790] = 0x1040894818408948(0xc4a0)
response[1791] = 0x5928c8(0x928d8)
response[1792] = 0xf079caff10c08348(0xc4a8)
response[1793] = 0xf079caff10c08348(0xc4a8)
response[1794] = 0xf079caff10c08348(0xc4a8)
response[1795] = 0x1040894818408948(0xc4a0)
response[1796] = 0x5928d8(0x928f0)
response[1797] = 0x1040894818408948(0xc4a0)
response[1798] = 0x5928d8(0x928e8)
response[1799] = 0xf079caff10c08348(0xc4a8)
response[1800] = 0xf079caff10c08348(0xc4a8)
response[1801] = 0xf079caff10c08348(0xc4a8)
response[1802] = 0x1040894818408948(0xc4a0)
response[1804] = 0x1040894818408948(0xc4a0)
response[1805] = 0x5928e8(0x928f8)
response[1806] = 0xf079caff10c08348(0xc4a8)
response[1807] = 0xf079caff10c08348(0xc4a8)
response[1808] = 0xf079caff10c08348(0xc4a8)
response[1809] = 0x1040894818408948(0xc4a0)
response[1810] = 0x5928f8(0x92910)
response[1811] = 0x1040894818408948(0xc4a0)
response[1812] = 0x5928f8(0x92908)
response[1813] = 0xf079caff10c08348(0xc4a8)
response[1814] = 0xf079caff10c08348(0xc4a8)
response[1815] = 0xf079caff10c08348(0xc4a8)
response[1816] = 0x1040894818408948(0xc4a0)
response[1817] = 0x592908(0x92920)
response[1818] = 0x1040894818408948(0xc4a0)
response[1819] = 0x592908(0x92918)
response[1820] = 0xf079caff10c08348(0xc4a8)
response[1821] = 0xf079caff10c08348(0xc4a8)
response[1822] = 0xf079caff10c08348(0xc4a8)
response[1823] = 0x1040894818408948(0xc4a0)
response[1824] = 0x592918(0x92930)
response[1825] = 0x1040894818408948(0xc4a0)
response[1826] = 0x592918(0x92928)
response[1827] = 0xf079caff10c08348(0xc4a8)
response[1828] = 0xf079caff10c08348(0xc4a8)
response[1829] = 0xf079caff10c08348(0xc4a8)
response[1830] = 0x1040894818408948(0xc4a0)
response[1832] = 0x1040894818408948(0xc4a0)
response[1833] = 0x592928(0x92938)
response[1834] = 0xf079caff10c08348(0xc4a8)
response[1835] = 0xf079caff10c08348(0xc4a8)
response[1836] = 0xf079caff10c08348(0xc4a8)
response[1837] = 0x1040894818408948(0xc4a0)
response[1838] = 0x592938(0x92950)
response[1839] = 0x1040894818408948(0xc4a0)
response[1840] = 0x592938(0x92948)
response[1841] = 0xf079caff10c08348(0xc4a8)
response[1842] = 0xf079caff10c08348(0xc4a8)
response[1843] = 0xf079caff10c08348(0xc4a8)
response[1844] = 0x1040894818408948(0xc4a0)
response[1845] = 0x592948(0x92960)
response[1846] = 0x1040894818408948(0xc4a0)
response[1847] = 0x592948(0x92958)
response[1848] = 0xf079caff10c08348(0xc4a8)
response[1849] = 0xf079caff10c08348(0xc4a8)
response[1850] = 0xf079caff10c08348(0xc4a8)
response[1851] = 0x1040894818408948(0xc4a0)
response[1852] = 0x592958(0x92970)
response[1853] = 0x1040894818408948(0xc4a0)
response[1854] = 0x592958(0x92968)
response[1855] = 0xf079caff10c08348(0xc4a8)
response[1856] = 0xf079caff10c08348(0xc4a8)
response[1857] = 0xf079caff10c08348(0xc4a8)
response[1858] = 0x1040894818408948(0xc4a0)
response[1860] = 0x1040894818408948(0xc4a0)
response[1861] = 0x592968(0x92978)
response[1862] = 0xf079caff10c08348(0xc4a8)
response[1863] = 0xf079caff10c08348(0xc4a8)
response[1864] = 0xf079caff10c08348(0xc4a8)
response[1865] = 0x1040894818408948(0xc4a0)
response[1866] = 0x592978(0x92990)
response[1867] = 0x1040894818408948(0xc4a0)
response[1868] = 0x592978(0x92988)
response[1869] = 0xf079caff10c08348(0xc4a8)
response[1870] = 0xf079caff10c08348(0xc4a8)
response[1871] = 0xf079caff10c08348(0xc4a8)
response[1872] = 0x1040894818408948(0xc4a0)
response[1873] = 0x592988(0x929a0)
response[1874] = 0x1040894818408948(0xc4a0)
response[1875] = 0x592988(0x92998)
response[1876] = 0xf079caff10c08348(0xc4a8)
response[1877] = 0xf079caff10c08348(0xc4a8)
response[1878] = 0xf079caff10c08348(0xc4a8)
response[1879] = 0x1040894818408948(0xc4a0)
response[1880] = 0x592998(0x929b0)
response[1881] = 0x1040894818408948(0xc4a0)
response[1882] = 0x592998(0x929a8)
response[1883] = 0xf079caff10c08348(0xc4a8)
response[1884] = 0xf079caff10c08348(0xc4a8)
response[1885] = 0xf079caff10c08348(0xc4a8)
response[1886] = 0x1040894818408948(0xc4a0)
response[1888] = 0x1040894818408948(0xc4a0)
response[1889] = 0x5929a8(0x929b8)
response[1890] = 0xf079caff10c08348(0xc4a8)
response[1891] = 0xf079caff10c08348(0xc4a8)
response[1892] = 0xf079caff10c08348(0xc4a8)
response[1893] = 0x1040894818408948(0xc4a0)
response[1894] = 0x5929b8(0x929d0)
response[1895] = 0x1040894818408948(0xc4a0)
response[1896] = 0x5929b8(0x929c8)
response[1897] = 0xf079caff10c08348(0xc4a8)
response[1898] = 0xf079caff10c08348(0xc4a8)
response[1899] = 0xf079caff10c08348(0xc4a8)
response[1900] = 0x1040894818408948(0xc4a0)
response[1901] = 0x5929c8(0x929e0)
response[1902] = 0x1040894818408948(0xc4a0)
response[1903] = 0x5929c8(0x929d8)
response[1904] = 0xf079caff10c08348(0xc4a8)
response[1905] = 0xf079caff10c08348(0xc4a8)
response[1906] = 0xf079caff10c08348(0xc4a8)
response[1907] = 0x1040894818408948(0xc4a0)
response[1908] = 0x5929d8(0x929f0)
response[1909] = 0x1040894818408948(0xc4a0)
response[1910] = 0x5929d8(0x929e8)
response[1911] = 0xf079caff10c08348(0xc4a8)
response[1912] = 0xf079caff10c08348(0xc4a8)
response[1913] = 0xf079caff10c08348(0xc4a8)
response[1914] = 0x1040894818408948(0xc4a0)
response[1916] = 0x1040894818408948(0xc4a0)
response[1917] = 0x5929e8(0x929f8)
response[1918] = 0xf079caff10c08348(0xc4a8)
response[1919] = 0xf079caff10c08348(0xc4a8)
response[1920] = 0xf079caff10c08348(0xc4a8)
response[1921] = 0x1040894818408948(0xc4a0)
response[1922] = 0x5929f8(0x92a10)
response[1923] = 0x1040894818408948(0xc4a0)
response[1924] = 0x5929f8(0x92a08)
response[1925] = 0xf079caff10c08348(0xc4a8)
response[1926] = 0xf079caff10c08348(0xc4a8)
response[1927] = 0xf079caff10c08348(0xc4a8)
response[1928] = 0x1040894818408948(0xc4a0)
response[1929] = 0x592a08(0x92a20)
response[1930] = 0x1040894818408948(0xc4a0)
response[1931] = 0x592a08(0x92a18)
response[1932] = 0xf079caff10c08348(0xc4a8)
response[1933] = 0xf079caff10c08348(0xc4a8)
response[1934] = 0xf079caff10c08348(0xc4a8)
response[1935] = 0x1040894818408948(0xc4a0)
response[1936] = 0x592a18(0x92a30)
response[1937] = 0x1040894818408948(0xc4a0)
response[1938] = 0x592a18(0x92a28)
response[1939] = 0xf079caff10c08348(0xc4a8)
response[1940] = 0xf079caff10c08348(0xc4a8)
response[1941] = 0xf079caff10c08348(0xc4a8)
response[1942] = 0x1040894818408948(0xc4a0)
response[1944] = 0x1040894818408948(0xc4a0)
response[1945] = 0x592a28(0x92a38)
response[1946] = 0xf079caff10c08348(0xc4a8)
response[1947] = 0xf079caff10c08348(0xc4a8)
response[1948] = 0xf079caff10c08348(0xc4a8)
response[1949] = 0x1040894818408948(0xc4a0)
response[1950] = 0x592a38(0x92a50)
response[1951] = 0x1040894818408948(0xc4a0)
response[1952] = 0x592a38(0x92a48)
response[1953] = 0xf079caff10c08348(0xc4a8)
response[1954] = 0xf079caff10c08348(0xc4a8)
response[1955] = 0xf079caff10c08348(0xc4a8)
response[1956] = 0x1040894818408948(0xc4a0)
response[1957] = 0x592a48(0x92a60)
[...]
response[9559] = 0x91840f1858394801(0x8688)
response[9560] = 0x4828488d48000000(0x8690)
response[xxx] = 0xebc38948c3ebffbf(0x8720)
response[9562] = 0xebc38948c3ebffbf(0x8720)
response[9563] = 0x17732f3d8348ad(0x8728)
response[xxx] = 0x8b48d38948e67518(0x86d0)
response[9565] = 0x3d83481189482853(0x86d8)
response[xxx] = 0x0(0x814c8)
response[9567] = 0x3d83481189482853(0x86d8)
response[9569] = 0x3d83481189482853(0x86d8)
response[9570] = 0x482f75000017737b(0x86e0)
response[xxx] = 0x0(0x7fa60)
response[9572] = 0x482f75000017737b(0x86e0)
response[9573] = 0x482f75000017737b(0x86e0)
response[9574] = 0xc3c0315bc35bd889(0x86e8)
response[9575] = 0xc3c0315bc35bd889(0x86e8)
response[9576] = 0x7fffffffeba0(0x94b30)
response[9577] = 0xc3c0315bc35bd889(0x86e8)
response[9578] = 0x400220(0x94b38)
response[9579] = 0xc9010018125905c6(0x220)
response[xxx] = 0xc9010018125905c6(0x220)
response[xxx] = 0x0(0x94b40)
response[9583] = 0x90666690666666c3(0x228)
response[9584] = 0x45d44d(0x94b48)
response[xxx] = 0xc48348fffa2d93e8(0x5d448)
response[9586] = 0xc308(0x5d450)
response[9587] = 0xc308(0x5d450)
response[9588] = 0x40a8e4(0x94b58)
response[xxx] = 0xfd158b480851ffee(0xa8e0)
response[9590] = 0x4808428b48001755(0xa8e8)
response[xxx] = 0x592040(0x7fee8)
response[9592] = 0x4808428b48001755(0xa8e8)
response[xxx] = 0x0(0x92048)
response[9594] = 0x4808428b48001755(0xa8e8)
response[9595] = 0x48d78948ad75c085(0xa8f0)
response[9596] = 0x48d78948ad75c085(0xa8f0)
response[9597] = 0x48d78948ad75c085(0xa8f0)
response[9598] = 0x48d78948ad75c085(0xa8f0)
response[9599] = 0x158948d28548128b(0xa8f8)
response[9600] = 0x0(0x92040)
response[9601] = 0x158948d28548128b(0xa8f8)
response[9602] = 0x158948d28548128b(0xa8f8)
response[xxx] = 0xa5e81174001755e4(0xa900)
response[9605] = 0xa5e81174001755e4(0xa900)
response[9606] = 0xbb8175d285480017(0xa910)
response[9607] = 0xfb8148004763f8(0xa918)
response[9608] = 0xfb8148004763f8(0xa918)
response[9609] = 0x4813ff0f73004764(0xa920)
response[9610] = 0x4813ff0f73004764(0xa920)
response[9611] = 0x4813ff0f73004764(0xa920)
response[xxx] = 0x40bff0(0x763f8)
response[xxx] = 0x8ec834853ff3155(0xbff0)
response[9616] = 0x8ec834853ff3155(0xbff0)
response[9617] = 0x8ec834853ff3155(0xbff0)
response[9619] = 0x8ec834853ff3155(0xbff0)
response[9620] = 0x1d8b48fffffd43e8(0xbff8)
response[xxx] = 0x4500000000b85641(0xbd40)
response[9624] = 0x4500000000b85641(0xbd40)
response[9625] = 0x4500000000b85641(0xbd40)
response[9626] = 0x41ed31455541f631(0xbd48)
response[9627] = 0x41ed31455541f631(0xbd48)
response[9629] = 0x41ed31455541f631(0xbd48)
response[9630] = 0x41ed31455541f631(0xbd48)
response[9631] = 0xec834853fd895554(0xbd50)
response[9633] = 0xec834853fd895554(0xbd50)
response[9635] = 0xec834853fd895554(0xbd50)
response[9636] = 0xec834853fd895554(0xbd50)
response[9638] = 0xec834853fd895554(0xbd50)
response[9639] = 0xc6950f41c0854820(0xbd58)
response[9640] = 0xc6950f41c0854820(0xbd58)
response[9641] = 0xc6950f41c0854820(0xbd58)
response[9642] = 0x114850ff68545(0xbd60)
response[9643] = 0x114850ff68545(0xbd60)
response[9644] = 0xb81474ed8500(0xbd68)
response[9645] = 0xb81474ed8500(0xbd68)
response[9646] = 0xb81474ed8500(0xbd68)
response[xxx] = 0x1866c8258b44ff(0xbd80)
response[xxx] = 0x555500000000(0x92450)
response[9649] = 0x90001741b11d8b48(0xbd88)
response[xxx] = 0x57ff60(0x7ff40)
response[9651] = 0x90001741b11d8b48(0xbd88)
response[9652] = 0x48ed857c74db8548(0xbd90)
response[9653] = 0x48ed857c74db8548(0xbd90)
response[9654] = 0x48ed857c74db8548(0xbd90)
response[9655] = 0x48ed857c74db8548(0xbd90)
response[9656] = 0xa74001866ba1d89(0xbd98)
response[9658] = 0xa74001866ba1d89(0xbd98)
response[9659] = 0xa88b8b0000(0xbda8)
response[xxx] = 0x555500000000(0x80008)
response[9661] = 0x988e0fc985(0xbdb0)
response[9662] = 0x988e0fc985(0xbdb0)
response[xxx] = 0x2843394820438b48(0xbe50)
response[xxx] = 0x0(0x7ff80)
response[9665] = 0x2843394820438b48(0xbe50)
response[9666] = 0x0(0x7ff88)
response[9667] = 0x906666ffffff6ae9(0xbe58)
response[xxx] = 0x762050394818508b(0xbdc0)
response[9669] = 0xd8838b4819(0xbdc8)
response[9670] = 0x83660674ed85e844(0xbde0)
response[9671] = 0x83660674ed85e844(0xbde0)
response[9672] = 0x665e058b7479003b(0xbde8)
response[9673] = 0x18665b05c7480018(0xbdf0)
response[9674] = 0x555500000000(0x92450)
response[9675] = 0x18665b05c7480018(0xbdf0)
response[9676] = 0xc439410000000000(0xbdf8)
response[9678] = 0xc439410000000000(0xbdf8)
response[xxx] = 0x1741371d8b484374(0xbe00)
response[9680] = 0x5b8b48c35e415d41(0xbe40)
response[9681] = 0x9066ffffff42e968(0xbe48)
response[xxx] = 0x5801e0(0x7ffc8)
response[xxx] = 0x9066ffffff42e968(0xbe48)
response[9684] = 0x48ed857c74db8548(0xbd90)
response[9685] = 0x48ed857c74db8548(0xbd90)
response[9686] = 0x48ed857c74db8548(0xbd90)
response[9687] = 0x48ed857c74db8548(0xbd90)
response[9688] = 0xa74001866ba1d89(0xbd98)
response[9690] = 0xa74001866ba1d89(0xbd98)
response[9691] = 0xa88b8b0000(0xbda8)
response[xxx] = 0x5555ffffffff(0x80288)
response[9693] = 0x988e0fc985(0xbdb0)
response[9694] = 0x988e0fc985(0xbdb0)
response[9695] = 0x2843394820438b48(0xbe50)
response[xxx] = 0x7ffff7ffd000(0x80200)
response[9697] = 0x2843394820438b48(0xbe50)
response[9698] = 0x7ffff7ffd000(0x80208)
response[9699] = 0x906666ffffff6ae9(0xbe58)
response[xxx] = 0x762050394818508b(0xbdc0)
response[9701] = 0xd8838b4819(0xbdc8)
response[9702] = 0x83660674ed85e844(0xbde0)
response[9703] = 0x83660674ed85e844(0xbde0)
response[9704] = 0x665e058b7479003b(0xbde8)
response[9705] = 0x18665b05c7480018(0xbdf0)
response[xxx] = 0x555500000000(0x92450)
response[9707] = 0x18665b05c7480018(0xbdf0)
response[9708] = 0xc439410000000000(0xbdf8)
response[9710] = 0xc439410000000000(0xbdf8)
response[9711] = 0x1741371d8b484374(0xbe00)
response[9712] = 0x5b8b48c35e415d41(0xbe40)
response[9713] = 0x9066ffffff42e968(0xbe48)
response[xxx] = 0x580460(0x80248)
response[9715] = 0x9066ffffff42e968(0xbe48)
response[9716] = 0x48ed857c74db8548(0xbd90)
response[9717] = 0x48ed857c74db8548(0xbd90)
response[9718] = 0x48ed857c74db8548(0xbd90)
response[9719] = 0x48ed857c74db8548(0xbd90)
response[9720] = 0xa74001866ba1d89(0xbd98)
response[9722] = 0xa74001866ba1d89(0xbd98)
response[9723] = 0xa88b8b0000(0xbda8)
response[xxx] = 0x555500000000(0x80508)
response[9725] = 0x988e0fc985(0xbdb0)
response[9726] = 0x988e0fc985(0xbdb0)
response[9727] = 0x2843394820438b48(0xbe50)
response[xxx] = 0x0(0x80480)
response[9729] = 0x2843394820438b48(0xbe50)
response[9730] = 0x0(0x80488)
response[9731] = 0x906666ffffff6ae9(0xbe58)
response[xxx] = 0x762050394818508b(0xbdc0)
response[9733] = 0xd8838b4819(0xbdc8)
response[9734] = 0x83660674ed85e844(0xbde0)
response[9735] = 0x83660674ed85e844(0xbde0)
response[9736] = 0x665e058b7479003b(0xbde8)
response[9737] = 0x18665b05c7480018(0xbdf0)
response[9738] = 0x555500000000(0x92450)
response[9739] = 0x18665b05c7480018(0xbdf0)
response[9740] = 0xc439410000000000(0xbdf8)
response[9742] = 0xc439410000000000(0xbdf8)
response[xxx] = 0x1741371d8b484374(0xbe00)
response[9744] = 0x5b8b48c35e415d41(0xbe40)
response[9745] = 0x9066ffffff42e968(0xbe48)
response[xxx] = 0x0(0x804c8)
response[9747] = 0x9066ffffff42e968(0xbe48)
response[xxx] = 0x48ed857c74db8548(0xbd90)
response[9749] = 0x48ed857c74db8548(0xbd90)
response[xxx] = 0xb81b74ed8584(0xbe10)
response[9751] = 0xb81b74ed8584(0xbe10)
response[9752] = 0xc483485c75f68545(0xbe30)
response[9753] = 0xc483485c75f68545(0xbe30)
response[9754] = 0xc483485c75f68545(0xbe30)
response[9755] = 0x5c415d5be8894420(0xbe38)
response[9756] = 0x5c415d5be8894420(0xbe38)
response[9757] = 0x5c415d5be8894420(0xbe38)
response[9758] = 0x4763f8(0x94b10)
response[9759] = 0x5c415d5be8894420(0xbe38)
response[9760] = 0x0(0x94b18)
response[9761] = 0x5c415d5be8894420(0xbe38)
response[9762] = 0x7fffffffec22(0x94b20)
response[9763] = 0x5b8b48c35e415d41(0xbe40)
response[9764] = 0x1(0x94b28)
response[9765] = 0x5b8b48c35e415d41(0xbe40)
response[9766] = 0x7fffffffedc8(0x94b30)
response[9767] = 0x5b8b48c35e415d41(0xbe40)
response[9768] = 0x40bffd(0x94b38)
response[xxx] = 0x1d8b48fffffd43e8(0xbff8)
response[xxx] = 0x27ebc58900173f3c(0xc000)
response[9771] = 0x57ff60(0x7ff40)
response[9772] = 0x27ebc58900173f3c(0xc000)
response[9773] = 0x27ebc58900173f3c(0xc000)
response[9774] = 0x48685b8b48ffffff(0xc028)
response[9775] = 0x8c48348d475db85(0xc030)
response[9776] = 0x8c48348d475db85(0xc030)
response[9777] = 0x8a8137502a8038b(0xc008)
response[9778] = 0x5555fbad2086(0x7ff60)
response[9779] = 0x8a8137502a8038b(0xc008)
response[9780] = 0x8a8137502a8038b(0xc008)
response[9781] = 0xff000000a883c71f(0xc020)
response[9782] = 0x48685b8b48ffffff(0xc028)
response[9784] = 0x48685b8b48ffffff(0xc028)
response[xxx] = 0x5801e0(0x7ffc8)
response[9786] = 0x48685b8b48ffffff(0xc028)
response[9787] = 0x8c48348d475db85(0xc030)
response[9788] = 0x8c48348d475db85(0xc030)
response[9789] = 0x8a8137502a8038b(0xc008)
response[xxx] = 0x5555fbad2a84(0x801e0)
response[9791] = 0x8a8137502a8038b(0xc008)
response[9792] = 0x8a8137502a8038b(0xc008)
response[9793] = 0x8a8137502a8038b(0xc008)
response[9794] = 0x8b0a7410c4f60574(0xc010)
response[9795] = 0x8b0a7410c4f60574(0xc010)
response[9796] = 0x75f685000000a8b3(0xc018)
response[xxx] = 0x5555ffffffff(0x80288)
response[9798] = 0x75f685000000a8b3(0xc018)
response[9799] = 0x75f685000000a8b3(0xc018)
response[9800] = 0xff000000a883c71f(0xc020)
response[xxx] = 0x31000000d8838b48(0xc040)
response[9802] = 0x461040(0x802b8)
response[9803] = 0x31000000d8838b48(0xc040)
response[9804] = 0x50ffdf8948f631d2(0xc048)
response[9805] = 0x50ffdf8948f631d2(0xc048)
response[9806] = 0x50ffdf8948f631d2(0xc048)
response[9807] = 0x50ffdf8948f631d2(0xc048)
response[9808] = 0x6690666666ceeb58(0xc050)
response[xxx] = 0x427cd0(0x61098)
response[xxx] = 0xfe3c17e8fb894853(0x27cd0)
response[9813] = 0xfe3c17e8fb894853(0x27cd0)
response[9814] = 0xfe3c17e8fb894853(0x27cd0)
response[9815] = 0x1f74c08548d231ff(0x27cd8)
response[xxx] = 0x6c8948e8245c8948(0xb8f0)
response[9819] = 0x6c8948e8245c8948(0xb8f0)
response[9820] = 0x64894cfb8948f024(0xb8f8)
response[9822] = 0x64894cfb8948f024(0xb8f8)
response[9823] = 0x64894cfb8948f024(0xb8f8)
response[xxx] = 0x8b4818ec8348f824(0xb900)
response[9826] = 0x8b4818ec8348f824(0xb900)
response[9827] = 0x8b4818ec8348f824(0xb900)
response[9828] = 0xd48949000000d887(0xb908)
response[9829] = 0x461040(0x802b8)
response[9830] = 0xd48949000000d887(0xb908)
response[9831] = 0xd2316050fff58948(0xb910)
response[9832] = 0xd2316050fff58948(0xb910)
response[9833] = 0x428c10(0x610a0)
response[xxx] = 0x64894ce8245c8948(0x28c10)
response[9837] = 0x64894ce8245c8948(0x28c10)
response[9838] = 0x6c8948e43145f824(0x28c18)
response[9840] = 0x6c8948e43145f824(0x28c18)
response[9841] = 0x6c8948e43145f824(0x28c18)
response[9842] = 0x8b4818ec8348f024(0x28c20)
response[9844] = 0x8b4818ec8348f024(0x28c20)
response[9845] = 0x8b4818ec8348f024(0x28c20)
response[9846] = 0x894820778b482857(0x28c28)
response[xxx] = 0x7ffff7ffd000(0x80208)
response[9848] = 0x894820778b482857(0x28c28)
response[9849] = 0x7ffff7ffd000(0x80200)
response[9850] = 0x894820778b482857(0x28c28)
response[9851] = 0xaf8b4a76f23948fb(0x28c30)
response[9852] = 0xaf8b4a76f23948fb(0x28c30)
response[9853] = 0xaf8b4a76f23948fb(0x28c30)
response[xxx] = 0x48c6894808438b48(0x28c80)
response[xxx] = 0x7ffff7ffd000(0x801e8)
response[xxx] = 0x48c6894808438b48(0x28c80)
response[9857] = 0x48c6894808438b48(0x28c80)
response[9858] = 0x83c748237510732b(0x28c88)
response[9859] = 0x7ffff7ffd000(0x801f0)
response[9860] = 0x83c748237510732b(0x28c88)
response[9861] = 0x83c748237510732b(0x28c88)
response[9862] = 0xffffffff00000090(0x28c90)
response[9864] = 0x48241c8b48e08944(0x28c98)
response[9865] = 0x48241c8b48e08944(0x28c98)
response[xxx] = 0x5801e0(0x94af0)
response[9867] = 0x48241c8b48e08944(0x28c98)
response[9868] = 0x24648b4c08246c8b(0x28ca0)
response[9869] = 0x0(0x94af8)
response[9870] = 0x24648b4c08246c8b(0x28ca0)
response[9871] = 0x9066c318c4834810(0x28ca8)
response[9872] = 0x0(0x94b00)
response[9873] = 0x9066c318c4834810(0x28ca8)
response[9874] = 0x9066c318c4834810(0x28ca8)
response[9875] = 0x40b916(0x94b08)
response[9876] = 0xd2316050fff58948(0xb910)
response[9877] = 0xfed85485a74c0ff(0xb918)
response[9878] = 0xfed85485a74c0ff(0xb918)
response[9879] = 0xfed85485a74c0ff(0xb918)
response[9880] = 0xfed85485a74c0ff(0xb918)
response[9881] = 0xc0940fe4854dc294(0xb920)
response[9882] = 0xc0940fe4854dc294(0xb920)
response[9883] = 0xc0940fe4854dc294(0xb920)
response[9884] = 0x2383627501a8d009(0xb928)
response[9885] = 0x2383627501a8d009(0xb928)
response[9886] = 0x2383627501a8d009(0xb928)
response[xxx] = 0x84938d48020b83(0xb990)
response[9888] = 0x5555fbad2a84(0x801e0)
response[9890] = 0x84938d48020b83(0xb990)
response[9891] = 0x83b38d480000(0xb998)
response[9892] = 0x83b38d480000(0xb998)
response[9893] = 0x66666696ebc93100(0xb9a0)
response[9894] = 0x66666696ebc93100(0xb9a0)
response[9895] = 0x66666696ebc93100(0xb9a0)
response[9896] = 0x2de8df8948ee8948(0xb938)
response[9897] = 0x2de8df8948ee8948(0xb938)
response[xxx] = 0x3043c748fffffd(0xb940)
response[xxx] = 0x6c8948e0245c8948(0xb670)
response[9902] = 0x6c8948e0245c8948(0xb670)
response[9903] = 0x64894cfb8948e824(0xb678)
response[9905] = 0x64894cfb8948e824(0xb678)
response[9906] = 0x64894cfb8948e824(0xb678)
response[xxx] = 0x48f8246c894cf024(0xb680)
response[9909] = 0x48f8246c894cf024(0xb680)
response[9911] = 0x48f8246c894cf024(0xb680)
response[9912] = 0x48387f8b4828ec83(0xb688)
response[9913] = 0x48387f8b4828ec83(0xb688)
response[9914] = 0x7ffff7ffd000(0x80218)
response[9915] = 0x48387f8b4828ec83(0xb688)
response[9916] = 0xcd8941d48949f589(0xb690)
response[9917] = 0xcd8941d48949f589(0xb690)
response[9918] = 0xcd8941d48949f589(0xb690)
response[9919] = 0xa8038b2374ff8548(0xb698)
response[9920] = 0xa8038b2374ff8548(0xb698)
response[9921] = 0xa8038b2374ff8548(0xb698)
response[9922] = 0x5555fbad2a86(0x801e0)
response[9923] = 0xa8038b2374ff8548(0xb698)
response[9924] = 0x4840738b481f7501(0xb6a0)
response[9925] = 0x4840738b481f7501(0xb6a0)
response[9926] = 0x4840738b481f7501(0xb6a0)
response[9927] = 0x7ffff7fff000(0x80220)
response[9928] = 0x4840738b481f7501(0xb6a0)
response[9929] = 0xfffc68148fe29(0xb6a8)
response[9930] = 0xfffc68148fe29(0xb6a8)
response[9931] = 0xfffff000e6814800(0xb6b0)
response[9932] = 0xfffff000e6814800(0xb6b0)
response[9933] = 0x90666600008a73e8(0xb6b8)
response[xxx] = 0xf0000000bc0c748(0x14130)
response[9936] = 0xf0000000bc0c748(0x14130)
response[9937] = 0xffffff0013d4805(0x14138)
response[9938] = 0xffffff0013d4805(0x14138)
response[9939] = 0xffffff0013d4805(0x14138)
response[xxx] = 0x9090c30000214b83(0x14140)
response[9941] = 0x9090c30000214b83(0x14140)
response[9942] = 0x40b6bd(0x94ad8)
response[9943] = 0x90666600008a73e8(0xb6b8)
response[xxx] = 0x6b8948ed8545038b(0xb6c0)
response[xxx] = 0x5555fbad2a86(0x801e0)
response[9946] = 0x6b8948ed8545038b(0xb6c0)
response[9947] = 0x6b8948ed8545038b(0xb6c0)
response[9948] = 0x8321744063894c38(0xb6c8)
response[9950] = 0x8321744063894c38(0xb6c8)
response[9952] = 0x8321744063894c38(0xb6c8)
response[9953] = 0x5c8b48038901c883(0xb6f0)
response[9954] = 0x5c8b48038901c883(0xb6f0)
response[9956] = 0x5c8b48038901c883(0xb6f0)
response[9957] = 0x4c10246c8b480824(0xb6f8)
response[9958] = 0x5801e0(0x94ae8)
response[9959] = 0x4c10246c8b480824(0xb6f8)
response[9960] = 0x0(0x94af0)
response[9961] = 0x4c10246c8b480824(0xb6f8)
response[xxx] = 0x246c8b4c1824648b(0xb700)
response[9963] = 0x0(0x94af8)
response[9964] = 0x246c8b4c1824648b(0xb700)
response[9965] = 0x9066c328c4834820(0xb708)
response[9966] = 0x1(0x94b00)
response[9967] = 0x9066c328c4834820(0xb708)
response[9968] = 0x9066c328c4834820(0xb708)
response[9969] = 0x40b943(0x94b08)
response[xxx] = 0x3043c748fffffd(0xb940)
response[9971] = 0x2843c748000000(0xb948)
response[9973] = 0x2843c748000000(0xb948)
response[9974] = 0xc748da8948000000(0xb950)
response[9976] = 0xc748da8948000000(0xb950)
response[9977] = 0xc748da8948000000(0xb950)
response[9978] = 0xc748000000002043(0xb958)
response[9980] = 0xc748000000002043(0xb958)
response[9981] = 0xc748000000001043(0xb960)
response[9983] = 0xc748000000001043(0xb960)
response[9984] = 0xc748000000000843(0xb968)
response[9986] = 0xc748000000000843(0xb968)
response[9987] = 0x8b48000000001843(0xb970)
response[9989] = 0x8b48000000001843(0xb970)
response[9990] = 0x4808246c8b48241c(0xb978)
response[9991] = 0x5801e0(0x94b10)
response[9992] = 0x4808246c8b48241c(0xb978)
response[9993] = 0x0(0x94b18)
response[9994] = 0x4808246c8b48241c(0xb978)
response[xxx] = 0x481024648b4cd089(0xb980)
response[9996] = 0x481024648b4cd089(0xb980)
response[9997] = 0x7fffffffec22(0x94b20)
response[9998] = 0x481024648b4cd089(0xb980)
response[9999] = 0x90666666c318c483(0xb988)
response[10000] = 0x90666666c318c483(0xb988)
response[10001] = 0x427cd9(0x94b28)
response[10002] = 0x1f74c08548d231ff(0x27cd8)
response[10003] = 0x1f74c08548d231ff(0x27cd8)
response[10004] = 0x1f74c08548d231ff(0x27cd8)
response[10005] = 0x48da894838438b48(0x27ce0)
response[10006] = 0x580263(0x80218)
response[10007] = 0x48da894838438b48(0x27ce0)
response[10008] = 0x48da894838438b48(0x27ce0)
response[10009] = 0x4828438948304389(0x27ce8)
response[10011] = 0x4828438948304389(0x27ce8)
response[10013] = 0x4828438948304389(0x27ce8)
response[10014] = 0x4818438948204389(0x27cf0)
response[10016] = 0x4818438948204389(0x27cf0)
response[10018] = 0x4818438948204389(0x27cf0)
response[10019] = 0x5b10438948084389(0x27cf8)
response[10021] = 0x5b10438948084389(0x27cf8)
response[10023] = 0x5b10438948084389(0x27cf8)
response[10024] = 0x5801e0(0x94b30)
response[xxx] = 0x90666666c3d08948(0x27d00)
response[10026] = 0x90666666c3d08948(0x27d00)
response[10027] = 0x40c051(0x94b38)
response[xxx] = 0x6690666666ceeb58(0xc050)
response[xxx] = 0xff000000a883c71f(0xc020)
response[10030] = 0x48685b8b48ffffff(0xc028)
response[xxx] = 0x48685b8b48ffffff(0xc028)
response[xxx] = 0x580460(0x80248)
response[10034] = 0x48685b8b48ffffff(0xc028)
response[10035] = 0x8c48348d475db85(0xc030)
response[10036] = 0x8c48348d475db85(0xc030)
response[10037] = 0x8a8137502a8038b(0xc008)
response[xxx] = 0x5555fbad2088(0x80460)
response[10039] = 0x8a8137502a8038b(0xc008)
response[10040] = 0x8a8137502a8038b(0xc008)
response[10041] = 0x8a8137502a8038b(0xc008)
response[10042] = 0x8b0a7410c4f60574(0xc010)
response[10043] = 0x8b0a7410c4f60574(0xc010)
response[10044] = 0x8b0a7410c4f60574(0xc010)
response[10045] = 0xff000000a883c71f(0xc020)
response[10046] = 0x48685b8b48ffffff(0xc028)
response[10048] = 0x48685b8b48ffffff(0xc028)
response[xxx] = 0x0(0x804c8)
response[10050] = 0x48685b8b48ffffff(0xc028)
response[10051] = 0x8c48348d475db85(0xc030)
response[10052] = 0x8c48348d475db85(0xc030)
response[10053] = 0x8c48348d475db85(0xc030)
response[10054] = 0x906666c35d5be889(0xc038)
response[10055] = 0x906666c35d5be889(0xc038)
response[xxx] = 0x4763f8(0x94b48)
response[xxx] = 0x906666c35d5be889(0xc038)
response[10058] = 0x0(0x94b50)
response[10059] = 0x906666c35d5be889(0xc038)
response[10060] = 0x40a927(0x94b58)
response[xxx] = 0x4813ff0f73004764(0xa920)
response[10062] = 0x6400fb814808c383(0xa928)
response[10063] = 0x6400fb814808c383(0xa928)
response[10064] = 0x75e8ef89f1720047(0xa930)
response[10065] = 0x75e8ef89f1720047(0xa930)
response[10066] = 0x75e8ef89f1720047(0xa930)
response[10067] = 0x75e8ef89f1720047(0xa930)
response[10068] = 0x9066906666000089(0xa938)
response[xxx] = 0xe7bd415541(0x132b0)
response[10072] = 0xe7bd415541(0x132b0)
response[10073] = 0x3cbc415441(0x132b8)
response[10075] = 0x3cbc415441(0x132b8)
response[xxx] = 0xec834853ef634855(0x132c0)
response[10078] = 0xec834853ef634855(0x132c0)
response[10079] = 0xec834853ef634855(0x132c0)
response[10081] = 0xec834853ef634855(0x132c0)
response[10082] = 0x906690666619eb08(0x132c8)
response[10083] = 0x906690666619eb08(0x132c8)
response[10084] = 0x44ef8948f42177c3(0x132e0)
response[10085] = 0x44ef8948f42177c3(0x132e0)
response[10086] = 0xf0003d48050fe889(0x132e8)
response[10087] = 0xf0003d48050fe889(0x132e8)
Exiting @ tick 54872000 because exiting with last active thread context
