Global frequency set at 1000000000000 ticks per second
simpleCache
DEBUG COH Protocol Name in XML header: MSI
FSM path: /home/gem5/gem5_new/ext/CMSpec/CMSpec/Protocols_FSM/
gem5 Simulator System.  https://www.gem5.org
gem5 is copyrighted software; use the --copyright option for details.

gem5 version 22.1.0.0
gem5 compiled Jul 10 2023 23:38:53
gem5 started Jul 10 2023 23:53:49
gem5 executing on gem5-VirtualBox, pid 781016
command line: /home/gem5/gem5_new/build/X86/gem5.debug /home/gem5/gem5_new/configs/learning_gem5/part2/simple_cache.py

Beginning simulation!
response[1] = 0xe8e78948(0x9100) Read->1+8
response[2] = 0xe8e78948(0x9100) Read->1+8
response[3] = 0xf8000108(0x37da8) Read->0+8
response[4] = 0xfa1e0ff3(0x9df0) Read->1+8
response[5] = 0xfa1e0ff3(0x9df0) Read->1+8
response[6] = 0x0(0x37da0) Read->0+8
response[7] = 0xfa1e0ff3(0x9df0) Read->1+8
response[8] = 0x89495741(0x9df8) Read->1+8
response[9] = 0x0(0x37d98) Read->0+8
response[10] = 0x89495741(0x9df8) Read->1+8
response[11] = 0x89495741(0x9df8) Read->1+8
response[12] = 0x0(0x37d90) Read->0+8
response[13] = 0x89495741(0x9df8) Read->1+8
response[14] = 0x53544155(0x9e00) Read->1+8
response[15] = 0x0(0x37d88) Read->0+8
response[16] = 0x53544155(0x9e00) Read->1+8
response[17] = 0x0(0x37d80) Read->0+8
response[18] = 0x53544155(0x9e00) Read->1+8
response[19] = 0x0(0x37d78) Read->0+8
response[20] = 0x53544155(0x9e00) Read->1+8
response[21] = 0xc148310f(0x9e08) Read->1+8
response[22] = 0xc148310f(0x9e08) Read->1+8
response[23] = 0xc148310f(0x9e08) Read->1+8
response[24] = 0x158d48d0(0x9e10) Read->1+8
response[25] = 0x158d48d0(0x9e10) Read->1+8
response[26] = 0xc1058948(0x9e18) Read->1+8
response[27] = 0x2c7(0x345e0) Read->0+8
response[28] = 0xc1058948(0x9e18) Read->1+8
response[29] = 0xc042058b(0x9e20) Read->1+8
response[30] = 0xe(0x34e68) Read->1+8
response[31] = 0xc042058b(0x9e20) Read->1+8
response[32] = 0x252b4cd4(0x9e28) Read->1+8
response[33] = 0x252b4cd4(0x9e28) Read->1+8
response[34] = 0x2de68(0x35000) Read->1+8
response[35] = 0xc1158948(0x9e30) Read->1+8
response[36] = 0xf802ce68(0x359f8) Read->0+8
response[37] = 0xc1158948(0x9e30) Read->1+8
response[38] = 0xcbaa2589(0x9e38) Read->1+8
response[39] = 0xf7fff000(0x359e8) Read->0+8
response[40] = 0xcbaa2589(0x9e38) Read->1+8
response[41] = 0xbf7374c0(0x9e40) Read->1+8
response[42] = 0xbf7374c0(0x9e40) Read->1+8
response[43] = 0xbf7374c0(0x9e40) Read->1+8
response[44] = 0xfdffba41(0x9e48) Read->1+8
response[45] = 0xfdffba41(0x9e48) Read->1+8
response[46] = 0x416ffffe(0x9e50) Read->1+8
response[47] = 0x416ffffe(0x9e50) Read->1+8
response[48] = 0xd8d486f(0x9e58) Read->1+8
response[49] = 0xd8d486f(0x9e58) Read->1+8
response[50] = 0xfe35bb41(0x9e60) Read->1+8
response[51] = 0xfe35bb41(0x9e60) Read->1+8
response[52] = 0x32(0x9e68) Read->1+8
response[53] = 0x32(0x9e68) Read->1+8
response[54] = 0x2beb7000(0x9e70) Read->1+8
response[55] = 0x2beb7000(0x9e70) Read->1+8
response[56] = 0x854810c2(0x9e98) Read->1+8
response[57] = 0x7722f883(0x9ea0) Read->1+8
response[58] = 0x7722f883(0x9ea0) Read->1+8
response[59] = 0x7722f883(0x9ea0) Read->1+8
response[60] = 0x428b48c1(0x9ea8) Read->1+8
response[61] = 0xf802ce68(0x35a98) Read->0+8
response[62] = 0x428b48c1(0x9ea8) Read->1+8
response[63] = 0x4(0x34e78) Read->1+8
response[64] = 0x428b48c1(0x9ea8) Read->1+8
response[65] = 0xc0854810(0x9eb0) Read->1+8
response[66] = 0xc0854810(0x9eb0) Read->1+8
response[67] = 0xc0854810(0x9eb0) Read->1+8
response[68] = 0x854810c2(0x9e98) Read->1+8
response[69] = 0x7722f883(0x9ea0) Read->1+8
response[70] = 0x7722f883(0x9ea0) Read->1+8
response[71] = 0x7722f883(0x9ea0) Read->1+8
response[72] = 0x428b48c1(0x9ea8) Read->1+8
response[73] = 0xf802ce78(0x35a48) Read->0+8
response[74] = 0x428b48c1(0x9ea8) Read->1+8
response[75] = 0x6ffffef5(0x34e88) Read->1+8
response[76] = 0x428b48c1(0x9ea8) Read->1+8
response[77] = 0xc0854810(0x9eb0) Read->1+8
response[78] = 0xc0854810(0x9eb0) Read->1+8
response[79] = 0xc0854810(0x9eb0) Read->1+8
response[80] = 0x854810c2(0x9e98) Read->1+8
response[81] = 0x7722f883(0x9ea0) Read->1+8
response[82] = 0x7722f883(0x9ea0) Read->1+8
response[83] = 0x48fe8948(0x9e78) Read->1+8
response[84] = 0x48fe8948(0x9e78) Read->1+8
response[85] = 0x48fe8948(0x9e78) Read->1+8
response[86] = 0x870f0ffe(0x9e80) Read->1+8
response[87] = 0x870f0ffe(0x9e80) Read->1+8
response[88] = 0x4100348d(0xa070) Read->1+8
response[89] = 0x4100348d(0xa070) Read->1+8
response[90] = 0x4100348d(0xa070) Read->1+8
response[91] = 0xf8fe83fe(0xa078) Read->1+8
response[92] = 0xf8fe83fe(0xa078) Read->1+8
response[93] = 0xf8fe83fe(0xa078) Read->1+8
response[94] = 0x48d6894c(0xa090) Read->1+8
response[95] = 0x48d6894c(0xa090) Read->1+8
response[96] = 0x48d6894c(0xa090) Read->1+8
response[97] = 0x870f0bfe(0xa098) Read->1+8
response[98] = 0x870f0bfe(0xa098) Read->1+8
response[99] = 0x48de8948(0xa210) Read->1+8
response[100] = 0x48de8948(0xa210) Read->1+8
response[101] = 0x48de8948(0xa210) Read->1+8
response[102] = 0x870f0afe(0xa218) Read->1+8
response[103] = 0x870f0afe(0xa218) Read->1+8
response[104] = 0x48ee894c(0xa220) Read->1+8
response[105] = 0x48ee894c(0xa220) Read->1+8
response[106] = 0x48ee894c(0xa220) Read->1+8
response[107] = 0x148948f0(0xa228) Read->1+8
response[108] = 0x148948f0(0xa228) Read->1+8
response[109] = 0xf802ce88(0x35c88) Read->0+8
response[110] = 0x148948f0(0xa228) Read->1+8
response[111] = 0xf66ffff(0xa230) Read->1+8
response[112] = 0x428b48c1(0x9ea8) Read->1+8
response[113] = 0x5(0x34e98) Read->1+8
response[114] = 0x428b48c1(0x9ea8) Read->1+8
response[115] = 0xc0854810(0x9eb0) Read->1+8
response[116] = 0xc0854810(0x9eb0) Read->1+8
response[117] = 0xc0854810(0x9eb0) Read->1+8
response[118] = 0x854810c2(0x9e98) Read->1+8
response[119] = 0x7722f883(0x9ea0) Read->1+8
response[120] = 0x7722f883(0x9ea0) Read->1+8
response[121] = 0x7722f883(0x9ea0) Read->1+8
response[122] = 0x428b48c1(0x9ea8) Read->1+8
response[123] = 0xf802ce98(0x35a50) Read->0+8
response[124] = 0x428b48c1(0x9ea8) Read->1+8
response[125] = 0x6(0x34ea8) Read->1+8
response[126] = 0x428b48c1(0x9ea8) Read->1+8
response[127] = 0xc0854810(0x9eb0) Read->1+8
response[128] = 0xc0854810(0x9eb0) Read->1+8
response[129] = 0xc0854810(0x9eb0) Read->1+8
response[130] = 0x854810c2(0x9e98) Read->1+8
response[131] = 0x7722f883(0x9ea0) Read->1+8
response[132] = 0x7722f883(0x9ea0) Read->1+8
response[133] = 0x7722f883(0x9ea0) Read->1+8
response[134] = 0x428b48c1(0x9ea8) Read->1+8
response[135] = 0xf802cea8(0x35a58) Read->0+8
response[136] = 0x428b48c1(0x9ea8) Read->1+8
response[137] = 0xa(0x34eb8) Read->1+8
response[138] = 0x428b48c1(0x9ea8) Read->1+8
response[139] = 0xc0854810(0x9eb0) Read->1+8
response[140] = 0xc0854810(0x9eb0) Read->1+8
response[141] = 0xc0854810(0x9eb0) Read->1+8
response[142] = 0x854810c2(0x9e98) Read->1+8
response[143] = 0x7722f883(0x9ea0) Read->1+8
response[144] = 0x7722f883(0x9ea0) Read->1+8
response[145] = 0x7722f883(0x9ea0) Read->1+8
response[146] = 0x428b48c1(0x9ea8) Read->1+8
response[147] = 0xf802ceb8(0x35a78) Read->0+8
response[148] = 0x428b48c1(0x9ea8) Read->1+8
response[149] = 0xb(0x34ec8) Read->1+8
response[150] = 0x428b48c1(0x9ea8) Read->1+8
response[151] = 0xc0854810(0x9eb0) Read->1+8
response[152] = 0xc0854810(0x9eb0) Read->1+8
response[153] = 0xc0854810(0x9eb0) Read->1+8
response[154] = 0x854810c2(0x9e98) Read->1+8
response[155] = 0x7722f883(0x9ea0) Read->1+8
response[156] = 0x7722f883(0x9ea0) Read->1+8
response[157] = 0x7722f883(0x9ea0) Read->1+8
response[158] = 0x428b48c1(0x9ea8) Read->1+8
response[159] = 0xf802cec8(0x35a80) Read->0+8
response[160] = 0x428b48c1(0x9ea8) Read->1+8
response[161] = 0x3(0x34ed8) Read->1+8
response[162] = 0x428b48c1(0x9ea8) Read->1+8
response[163] = 0xc0854810(0x9eb0) Read->1+8
response[164] = 0xc0854810(0x9eb0) Read->1+8
response[165] = 0xc0854810(0x9eb0) Read->1+8
response[166] = 0x854810c2(0x9e98) Read->1+8
response[167] = 0x7722f883(0x9ea0) Read->1+8
response[168] = 0x7722f883(0x9ea0) Read->1+8
response[169] = 0x7722f883(0x9ea0) Read->1+8
response[170] = 0x428b48c1(0x9ea8) Read->1+8
response[171] = 0xf802ced8(0x35a40) Read->0+8
response[172] = 0x428b48c1(0x9ea8) Read->1+8
response[173] = 0x2(0x34ee8) Read->1+8
response[174] = 0x428b48c1(0x9ea8) Read->1+8
response[175] = 0xc0854810(0x9eb0) Read->1+8
response[176] = 0xc0854810(0x9eb0) Read->1+8
response[177] = 0xc0854810(0x9eb0) Read->1+8
response[178] = 0x854810c2(0x9e98) Read->1+8
response[179] = 0x7722f883(0x9ea0) Read->1+8
response[180] = 0x7722f883(0x9ea0) Read->1+8
response[181] = 0x7722f883(0x9ea0) Read->1+8
response[182] = 0x428b48c1(0x9ea8) Read->1+8
response[183] = 0xf802cee8(0x35a38) Read->0+8
response[184] = 0x428b48c1(0x9ea8) Read->1+8
response[185] = 0x14(0x34ef8) Read->1+8
response[186] = 0x428b48c1(0x9ea8) Read->1+8
response[187] = 0xc0854810(0x9eb0) Read->1+8
response[188] = 0xc0854810(0x9eb0) Read->1+8
response[189] = 0xc0854810(0x9eb0) Read->1+8
response[190] = 0x854810c2(0x9e98) Read->1+8
response[191] = 0x7722f883(0x9ea0) Read->1+8
response[192] = 0x7722f883(0x9ea0) Read->1+8
response[193] = 0x7722f883(0x9ea0) Read->1+8
response[194] = 0x428b48c1(0x9ea8) Read->1+8
response[195] = 0xf802cef8(0x35ac8) Read->0+8
response[196] = 0x428b48c1(0x9ea8) Read->1+8
response[197] = 0x17(0x34f08) Read->1+8
response[198] = 0x428b48c1(0x9ea8) Read->1+8
response[199] = 0xc0854810(0x9eb0) Read->1+8
response[200] = 0xc0854810(0x9eb0) Read->1+8
response[201] = 0xc0854810(0x9eb0) Read->1+8
response[202] = 0x854810c2(0x9e98) Read->1+8
response[203] = 0x7722f883(0x9ea0) Read->1+8
response[204] = 0x7722f883(0x9ea0) Read->1+8
response[205] = 0x7722f883(0x9ea0) Read->1+8
response[206] = 0x428b48c1(0x9ea8) Read->1+8
response[207] = 0xf802cf08(0x35ae0) Read->0+8
response[208] = 0x428b48c1(0x9ea8) Read->1+8
response[209] = 0x7(0x34f18) Read->1+8
response[210] = 0x428b48c1(0x9ea8) Read->1+8
response[211] = 0xc0854810(0x9eb0) Read->1+8
response[212] = 0xc0854810(0x9eb0) Read->1+8
response[213] = 0xc0854810(0x9eb0) Read->1+8
response[214] = 0x854810c2(0x9e98) Read->1+8
response[215] = 0x7722f883(0x9ea0) Read->1+8
response[216] = 0x7722f883(0x9ea0) Read->1+8
response[217] = 0x7722f883(0x9ea0) Read->1+8
response[218] = 0x428b48c1(0x9ea8) Read->1+8
response[219] = 0xf802cf18(0x35a60) Read->0+8
response[220] = 0x428b48c1(0x9ea8) Read->1+8
response[221] = 0x8(0x34f28) Read->1+8
response[222] = 0x428b48c1(0x9ea8) Read->1+8
response[223] = 0xc0854810(0x9eb0) Read->1+8
response[224] = 0xc0854810(0x9eb0) Read->1+8
response[225] = 0xc0854810(0x9eb0) Read->1+8
response[226] = 0x854810c2(0x9e98) Read->1+8
response[227] = 0x7722f883(0x9ea0) Read->1+8
response[228] = 0x7722f883(0x9ea0) Read->1+8
response[229] = 0x7722f883(0x9ea0) Read->1+8
response[230] = 0x428b48c1(0x9ea8) Read->1+8
response[231] = 0xf802cf28(0x35a68) Read->0+8
response[232] = 0x428b48c1(0x9ea8) Read->1+8
response[233] = 0x9(0x34f38) Read->1+8
response[234] = 0x428b48c1(0x9ea8) Read->1+8
response[235] = 0xc0854810(0x9eb0) Read->1+8
response[236] = 0xc0854810(0x9eb0) Read->1+8
response[237] = 0xc0854810(0x9eb0) Read->1+8
response[238] = 0x854810c2(0x9e98) Read->1+8
response[239] = 0x7722f883(0x9ea0) Read->1+8
response[240] = 0x7722f883(0x9ea0) Read->1+8
response[241] = 0x7722f883(0x9ea0) Read->1+8
response[242] = 0x428b48c1(0x9ea8) Read->1+8
response[243] = 0xf802cf38(0x35a70) Read->0+8
response[244] = 0x428b48c1(0x9ea8) Read->1+8
response[245] = 0x6ffffffc(0x34f48) Read->1+8
response[246] = 0x428b48c1(0x9ea8) Read->1+8
response[247] = 0xc0854810(0x9eb0) Read->1+8
response[248] = 0xc0854810(0x9eb0) Read->1+8
response[249] = 0xc0854810(0x9eb0) Read->1+8
response[250] = 0x854810c2(0x9e98) Read->1+8
response[251] = 0x7722f883(0x9ea0) Read->1+8
response[252] = 0x7722f883(0x9ea0) Read->1+8
response[253] = 0x48fe8948(0x9e78) Read->1+8
response[254] = 0x48fe8948(0x9e78) Read->1+8
response[255] = 0x48fe8948(0x9e78) Read->1+8
response[256] = 0x870f0ffe(0x9e80) Read->1+8
response[257] = 0x870f0ffe(0x9e80) Read->1+8
response[258] = 0x48c6894c(0x9e88) Read->1+8
response[259] = 0x48c6894c(0x9e88) Read->1+8
response[260] = 0x48c6894c(0x9e88) Read->1+8
response[261] = 0x8b48f114(0x9e90) Read->1+8
response[262] = 0xf802cf48(0x35b58) Read->0+8
response[263] = 0x8b48f114(0x9e90) Read->1+8
response[264] = 0x6ffffffd(0x34f58) Read->1+8
response[265] = 0x8b48f114(0x9e90) Read->1+8
response[266] = 0x854810c2(0x9e98) Read->1+8
response[267] = 0x854810c2(0x9e98) Read->1+8
response[268] = 0x854810c2(0x9e98) Read->1+8
response[269] = 0x854810c2(0x9e98) Read->1+8
response[270] = 0x7722f883(0x9ea0) Read->1+8
response[271] = 0x7722f883(0x9ea0) Read->1+8
response[272] = 0x48fe8948(0x9e78) Read->1+8
response[273] = 0x48fe8948(0x9e78) Read->1+8
response[274] = 0x48fe8948(0x9e78) Read->1+8
response[275] = 0x870f0ffe(0x9e80) Read->1+8
response[276] = 0x870f0ffe(0x9e80) Read->1+8
response[277] = 0x48c6894c(0x9e88) Read->1+8
response[278] = 0x48c6894c(0x9e88) Read->1+8
response[279] = 0x48c6894c(0x9e88) Read->1+8
response[280] = 0x8b48f114(0x9e90) Read->1+8
response[281] = 0xf802cf58(0x35b50) Read->0+8
response[282] = 0x8b48f114(0x9e90) Read->1+8
response[283] = 0x6ffffff0(0x34f68) Read->1+8
response[284] = 0x8b48f114(0x9e90) Read->1+8
response[285] = 0x854810c2(0x9e98) Read->1+8
response[286] = 0x854810c2(0x9e98) Read->1+8
response[287] = 0x854810c2(0x9e98) Read->1+8
response[288] = 0x854810c2(0x9e98) Read->1+8
response[289] = 0x7722f883(0x9ea0) Read->1+8
response[290] = 0x7722f883(0x9ea0) Read->1+8
response[291] = 0x48fe8948(0x9e78) Read->1+8
response[292] = 0x48fe8948(0x9e78) Read->1+8
response[293] = 0x48fe8948(0x9e78) Read->1+8
response[294] = 0x870f0ffe(0x9e80) Read->1+8
response[295] = 0x870f0ffe(0x9e80) Read->1+8
response[296] = 0x48c6894c(0x9e88) Read->1+8
response[297] = 0x48c6894c(0x9e88) Read->1+8
response[298] = 0x48c6894c(0x9e88) Read->1+8
response[299] = 0x8b48f114(0x9e90) Read->1+8
response[300] = 0xf802cf68(0x35bb8) Read->0+8
response[301] = 0x8b48f114(0x9e90) Read->1+8
response[302] = 0x6ffffff9(0x34f78) Read->1+8
response[303] = 0x8b48f114(0x9e90) Read->1+8
response[304] = 0x854810c2(0x9e98) Read->1+8
response[305] = 0x854810c2(0x9e98) Read->1+8
response[306] = 0x854810c2(0x9e98) Read->1+8
response[307] = 0x854810c2(0x9e98) Read->1+8
response[308] = 0x7722f883(0x9ea0) Read->1+8
response[309] = 0x7722f883(0x9ea0) Read->1+8
response[310] = 0x48fe8948(0x9e78) Read->1+8
response[311] = 0x48fe8948(0x9e78) Read->1+8
response[312] = 0x48fe8948(0x9e78) Read->1+8
response[313] = 0x870f0ffe(0x9e80) Read->1+8
response[314] = 0x870f0ffe(0x9e80) Read->1+8
response[315] = 0x48c6894c(0x9e88) Read->1+8
response[316] = 0x48c6894c(0x9e88) Read->1+8
response[317] = 0x48c6894c(0x9e88) Read->1+8
response[318] = 0x8b48f114(0x9e90) Read->1+8
response[319] = 0xf802cf78(0x35b70) Read->0+8
response[320] = 0x8b48f114(0x9e90) Read->1+8
response[321] = 0x0(0x34f88) Read->1+8
response[322] = 0x8b48f114(0x9e90) Read->1+8
response[323] = 0x854810c2(0x9e98) Read->1+8
response[324] = 0x854810c2(0x9e98) Read->1+8
response[325] = 0x854810c2(0x9e98) Read->1+8
response[326] = 0xc0854810(0x9eb0) Read->1+8
response[327] = 0x80840fe4(0x9eb8) Read->1+8
response[328] = 0x80840fe4(0x9eb8) Read->1+8
response[329] = 0x80840fe4(0x9eb8) Read->1+8
response[330] = 0xcb82058b(0x9ec0) Read->1+8
response[331] = 0xf802ce78(0x35a48) Read->1+8
response[332] = 0xcb82058b(0x9ec0) Read->1+8
response[333] = 0x4c0474c0(0x9ec8) Read->1+8
response[334] = 0x4c0474c0(0x9ec8) Read->1+8
response[335] = 0x4c0474c0(0x9ec8) Read->1+8
response[336] = 0x2f0(0x34e80) Read->1+8
response[337] = 0xf7fff2f0(0x34e80) Read->0+8
response[338] = 0x4c0474c0(0x9ec8) Read->1+8
response[339] = 0xcb6a058b(0x9ed0) Read->1+8
response[340] = 0xf802ced8(0x35a40) Read->1+8
response[341] = 0xcb6a058b(0x9ed0) Read->1+8
response[342] = 0x4c0474c0(0x9ed8) Read->1+8
response[343] = 0x4c0474c0(0x9ed8) Read->1+8
response[344] = 0x4c0474c0(0x9ed8) Read->1+8
response[345] = 0x2e000(0x34ee0) Read->1+8
response[346] = 0xf802d000(0x34ee0) Read->0+8
response[347] = 0x4c0474c0(0x9ed8) Read->1+8
response[348] = 0xcb6a058b(0x9ee0) Read->1+8
response[349] = 0xf802ce98(0x35a50) Read->1+8
response[350] = 0xcb6a058b(0x9ee0) Read->1+8
response[351] = 0x4c0474c0(0x9ee8) Read->1+8
response[352] = 0x4c0474c0(0x9ee8) Read->1+8
response[353] = 0x4c0474c0(0x9ee8) Read->1+8
response[354] = 0x7f0(0x34ea0) Read->1+8
response[355] = 0xf7fff7f0(0x34ea0) Read->0+8
response[356] = 0x4c0474c0(0x9ee8) Read->1+8
response[357] = 0xcb62058b(0x9ef0) Read->1+8
response[358] = 0xf802cea8(0x35a58) Read->1+8
response[359] = 0xcb62058b(0x9ef0) Read->1+8
response[360] = 0x4c0474c0(0x9ef8) Read->1+8
response[361] = 0x4c0474c0(0x9ef8) Read->1+8
response[362] = 0x4c0474c0(0x9ef8) Read->1+8
response[363] = 0x4c0(0x34eb0) Read->1+8
response[364] = 0xf7fff4c0(0x34eb0) Read->0+8
response[365] = 0x4c0474c0(0x9ef8) Read->1+8
response[366] = 0xcb5a058b(0x9f00) Read->1+8
response[367] = 0xf802cf18(0x35a60) Read->1+8
response[368] = 0xcb5a058b(0x9f00) Read->1+8
response[369] = 0x4c0474c0(0x9f08) Read->1+8
response[370] = 0x4c0474c0(0x9f08) Read->1+8
response[371] = 0x4c0474c0(0x9f08) Read->1+8
response[372] = 0xb00(0x34f20) Read->1+8
response[373] = 0xf7fffb00(0x34f20) Read->0+8
response[374] = 0x4c0474c0(0x9f08) Read->1+8
response[375] = 0xcbca058b(0x9f10) Read->1+8
response[376] = 0xf802cf08(0x35ae0) Read->1+8
response[377] = 0xcbca058b(0x9f10) Read->1+8
response[378] = 0x4c0474c0(0x9f18) Read->1+8
response[379] = 0x4c0474c0(0x9f18) Read->1+8
response[380] = 0x4c0474c0(0x9f18) Read->1+8
response[381] = 0xf20(0x34f10) Read->1+8
response[382] = 0xf7ffff20(0x34f10) Read->0+8
response[383] = 0x4c0474c0(0x9f18) Read->1+8
response[384] = 0xcc92058b(0x9f20) Read->1+8
response[385] = 0xf802cf68(0x35bb8) Read->1+8
response[386] = 0xcc92058b(0x9f20) Read->1+8
response[387] = 0x4c0474c0(0x9f28) Read->1+8
response[388] = 0x4c0474c0(0x9f28) Read->1+8
response[389] = 0x4c0474c0(0x9f28) Read->1+8
response[390] = 0xa14(0x34f70) Read->1+8
response[391] = 0xf7fffa14(0x34f70) Read->0+8
response[392] = 0x4c0474c0(0x9f28) Read->1+8
response[393] = 0xcd52058b(0x9f30) Read->1+8
response[394] = 0xf802ce88(0x35c88) Read->1+8
response[395] = 0xcd52058b(0x9f30) Read->1+8
response[396] = 0x4c0474c0(0x9f38) Read->1+8
response[397] = 0x4c0474c0(0x9f38) Read->1+8
response[398] = 0x4c0474c0(0x9f38) Read->1+8
response[399] = 0x3c8(0x34e90) Read->1+8
response[400] = 0xf7fff3c8(0x34e90) Read->0+8
response[401] = 0x4c0474c0(0x9f38) Read->1+8
response[402] = 0xcb82158b(0x9f40) Read->1+8
response[403] = 0xf802cef8(0x35ac8) Read->1+8
response[404] = 0xcb82158b(0x9f40) Read->1+8
response[405] = 0x480b74d2(0x9f48) Read->1+8
response[406] = 0x480b74d2(0x9f48) Read->1+8
response[407] = 0x480b74d2(0x9f48) Read->1+8
response[408] = 0x7(0x34f00) Read->1+8
response[409] = 0x3d8850f(0x9f50) Read->1+8
response[410] = 0x3d8850f(0x9f50) Read->1+8
response[411] = 0x2cb0305(0x9f58) Read->1+8
response[412] = 0xf802cf18(0x35a60) Read->1+8
response[413] = 0x2cb0305(0x9f58) Read->1+8
response[414] = 0x8b481274(0x9f60) Read->1+8
response[415] = 0x8b481274(0x9f60) Read->1+8
response[416] = 0x79834800(0x9f68) Read->1+8
response[417] = 0xf802cf38(0x35a70) Read->1+8
response[418] = 0x79834800(0x9f68) Read->1+8
response[419] = 0x18(0x34f40) Read->1+8
response[420] = 0x79834800(0x9f68) Read->1+8
response[421] = 0x455(0x9f70) Read->1+8
response[422] = 0x455(0x9f70) Read->1+8
response[423] = 0x480002cb(0x9f78) Read->1+8
response[424] = 0x0(0x35b60) Read->1+8
response[425] = 0x480002cb(0x9f78) Read->1+8
response[426] = 0x480002cb(0x9f78) Read->1+8
response[427] = 0x41c850f(0x9f88) Read->1+8
response[428] = 0x2cb830d(0x9f90) Read->1+8
response[429] = 0x0(0x35b18) Read->1+8
response[430] = 0x2cb830d(0x9f90) Read->1+8
response[431] = 0xf7480e74(0x9f98) Read->1+8
response[432] = 0x603d8348(0x9fa8) Read->1+8
response[433] = 0x0(0x35b10) Read->1+8
response[434] = 0x3b6850f(0x9fb0) Read->1+8
response[435] = 0x3b6850f(0x9fb0) Read->1+8
response[436] = 0x2cae23d(0x9fb8) Read->1+8
response[437] = 0x0(0x35aa0) Read->1+8
response[438] = 0x2cae23d(0x9fb8) Read->1+8
response[439] = 0x389(0x9fc0) Read->1+8
response[440] = 0x389(0x9fc0) Read->1+8
response[441] = 0x389(0x9fc0) Read->1+8
response[442] = 0xe385(0x9fc8) Read->1+8
response[443] = 0xfc08548(0xa0b0) Read->1+8
response[444] = 0xfc08548(0xa0b0) Read->1+8
response[445] = 0x788b4800(0xa0b8) Read->1+8
response[446] = 0x788b4800(0xa0b8) Read->1+8
response[447] = 0xf7fffb00(0x34f20) Read->1+8
response[448] = 0x788b4800(0xa0b8) Read->1+8
response[449] = 0x2c9a4(0xa0c0) Read->1+8
response[450] = 0xf802cf28(0x35a68) Read->1+8
response[451] = 0x2c9a4(0xa0c0) Read->1+8
response[452] = 0x480002ca(0xa0c8) Read->1+8
response[453] = 0xf802cf78(0x35b70) Read->1+8
response[454] = 0x480002ca(0xa0c8) Read->1+8
response[455] = 0x420(0x34f30) Read->1+8
response[456] = 0x480002ca(0xa0c8) Read->1+8
response[457] = 0x8948fb89(0xa0d0) Read->1+8
response[458] = 0x8948fb89(0xa0d0) Read->1+8
response[459] = 0x8948fb89(0xa0d0) Read->1+8
response[460] = 0xc0854d0f(0xa0d8) Read->1+8
response[461] = 0xc0854d0f(0xa0d8) Read->1+8
response[462] = 0xc0854d0f(0xa0d8) Read->1+8
response[463] = 0xc0854d0f(0xa0d8) Read->1+8
response[464] = 0x8d4f0840(0xa0e0) Read->1+8
response[465] = 0x2a(0x34f80) Read->1+8
response[466] = 0x8d4f0840(0xa0e0) Read->1+8
response[467] = 0x8d4f0840(0xa0e0) Read->1+8
response[468] = 0x8548c71c(0xa0e8) Read->1+8
response[469] = 0x8548c71c(0xa0e8) Read->1+8
response[470] = 0x8548c71c(0xa0e8) Read->1+8
response[471] = 0x8548c71c(0xa0e8) Read->1+8
response[472] = 0xc942158b(0xa0f0) Read->1+8
response[473] = 0xf802cee8(0x35a38) Read->1+8
response[474] = 0xc942158b(0xa0f0) Read->1+8
response[475] = 0x2c9e305(0xa0f8) Read->1+8
response[476] = 0xf802cf08(0x35ae0) Read->1+8
response[477] = 0x2c9e305(0xa0f8) Read->1+8
response[478] = 0x8528b48(0xa100) Read->1+8
response[479] = 0xa8(0x34ef0) Read->1+8
response[480] = 0x8528b48(0xa100) Read->1+8
response[481] = 0xf7ffff20(0x34f10) Read->1+8
response[482] = 0x48d30149(0xa108) Read->1+8
response[483] = 0x48d30149(0xa108) Read->1+8
response[484] = 0x48d30149(0xa108) Read->1+8
response[485] = 0x450f48f3(0xa110) Read->1+8
response[486] = 0x450f48f3(0xa110) Read->1+8
response[487] = 0x450f48f3(0xa110) Read->1+8
response[488] = 0x2c93c(0xa118) Read->1+8
response[489] = 0xf802cea8(0x35a58) Read->1+8
response[490] = 0x2c93c(0xa118) Read->1+8
response[491] = 0xf7fff4c0(0x34eb0) Read->1+8
response[492] = 0x73d83948(0xa120) Read->1+8
response[493] = 0x73d83948(0xa120) Read->1+8
response[494] = 0x73d83948(0xa120) Read->1+8
response[495] = 0x4c108b48(0xa128) Read->1+8
response[496] = 0x2d7f0(0x8b00) Read->1+8
response[497] = 0x4c108b48(0xa128) Read->1+8
response[498] = 0x4c108b48(0xa128) Read->1+8
response[499] = 0x850f0808(0xa130) Read->1+8
response[500] = 0x8(0x8b08) Read->1+4
response[501] = 0x850f0808(0xa130) Read->1+8
response[502] = 0x10488b48(0xa138) Read->1+8
response[503] = 0x12990(0x8b10) Read->1+8
response[504] = 0x10488b48(0xa138) Read->1+8
response[505] = 0x48e1014c(0xa140) Read->1+8
response[506] = 0x48e1014c(0xa140) Read->1+8
response[507] = 0xf8011990(0x347f0) Read->0+8
response[508] = 0x48e1014c(0xa140) Read->1+8
response[509] = 0x48dd72d8(0xa148) Read->1+8
response[510] = 0x48dd72d8(0xa148) Read->1+8
response[511] = 0x4c108b48(0xa128) Read->1+8
response[512] = 0x2d7f8(0x8b18) Read->1+8
response[513] = 0x4c108b48(0xa128) Read->1+8
response[514] = 0x4c108b48(0xa128) Read->1+8
response[515] = 0x850f0808(0xa130) Read->1+8
response[516] = 0x8(0x8b20) Read->1+4
response[517] = 0x850f0808(0xa130) Read->1+8
response[518] = 0x10488b48(0xa138) Read->1+8
response[519] = 0x13e10(0x8b28) Read->1+8
response[520] = 0x10488b48(0xa138) Read->1+8
response[521] = 0x48e1014c(0xa140) Read->1+8
response[522] = 0x48e1014c(0xa140) Read->1+8
response[523] = 0xf8012e10(0x347f8) Read->0+8
response[524] = 0x48e1014c(0xa140) Read->1+8
response[525] = 0x48dd72d8(0xa148) Read->1+8
response[526] = 0x48dd72d8(0xa148) Read->1+8
response[527] = 0x4c108b48(0xa128) Read->1+8
response[528] = 0x2d800(0x8b30) Read->1+8
response[529] = 0x4c108b48(0xa128) Read->1+8
response[530] = 0x4c108b48(0xa128) Read->1+8
response[531] = 0x850f0808(0xa130) Read->1+8
response[532] = 0x8(0x8b38) Read->1+4
response[533] = 0x850f0808(0xa130) Read->1+8
response[534] = 0x10488b48(0xa138) Read->1+8
response[535] = 0xc0d0(0x8b40) Read->1+8
response[536] = 0x10488b48(0xa138) Read->1+8
response[537] = 0x48e1014c(0xa140) Read->1+8
response[538] = 0x48e1014c(0xa140) Read->1+8
response[539] = 0xf800b0d0(0x34800) Read->0+8
response[540] = 0x48e1014c(0xa140) Read->1+8
response[541] = 0x48dd72d8(0xa148) Read->1+8
response[542] = 0x48dd72d8(0xa148) Read->1+8
response[543] = 0x4c108b48(0xa128) Read->1+8
response[544] = 0x2d808(0x8b48) Read->1+8
response[545] = 0x4c108b48(0xa128) Read->1+8
response[546] = 0x4c108b48(0xa128) Read->1+8
response[547] = 0x850f0808(0xa130) Read->1+8
response[548] = 0x8(0x8b50) Read->1+4
response[549] = 0x850f0808(0xa130) Read->1+8
response[550] = 0x10488b48(0xa138) Read->1+8
response[551] = 0x15560(0x8b58) Read->1+8
response[552] = 0x10488b48(0xa138) Read->1+8
response[553] = 0x48e1014c(0xa140) Read->1+8
response[554] = 0x48e1014c(0xa140) Read->1+8
response[555] = 0xf8014560(0x34808) Read->0+8
response[556] = 0x48e1014c(0xa140) Read->1+8
response[557] = 0x48dd72d8(0xa148) Read->1+8
response[558] = 0x48dd72d8(0xa148) Read->1+8
response[559] = 0x4c108b48(0xa128) Read->1+8
response[560] = 0x2d810(0x8b60) Read->1+8
response[561] = 0x4c108b48(0xa128) Read->1+8
response[562] = 0x4c108b48(0xa128) Read->1+8
response[563] = 0x850f0808(0xa130) Read->1+8
response[564] = 0x8(0x8b68) Read->1+4
response[565] = 0x850f0808(0xa130) Read->1+8
response[566] = 0x10488b48(0xa138) Read->1+8
response[567] = 0x17ea0(0x8b70) Read->1+8
response[568] = 0x10488b48(0xa138) Read->1+8
response[569] = 0x48e1014c(0xa140) Read->1+8
response[570] = 0x48e1014c(0xa140) Read->1+8
response[571] = 0xf8016ea0(0x34810) Read->0+8
response[572] = 0x48e1014c(0xa140) Read->1+8
response[573] = 0x48dd72d8(0xa148) Read->1+8
response[574] = 0x48dd72d8(0xa148) Read->1+8
response[575] = 0x4c108b48(0xa128) Read->1+8
response[576] = 0x2d818(0x8b78) Read->1+8
response[577] = 0x4c108b48(0xa128) Read->1+8
response[578] = 0x4c108b48(0xa128) Read->1+8
response[579] = 0x850f0808(0xa130) Read->1+8
response[580] = 0x8(0x8b80) Read->1+4
response[581] = 0x850f0808(0xa130) Read->1+8
response[582] = 0x10488b48(0xa138) Read->1+8
response[583] = 0x14d50(0x8b88) Read->1+8
response[584] = 0x10488b48(0xa138) Read->1+8
response[585] = 0x48e1014c(0xa140) Read->1+8
response[586] = 0x48e1014c(0xa140) Read->1+8
response[587] = 0xf8013d50(0x34818) Read->0+8
response[588] = 0x48e1014c(0xa140) Read->1+8
response[589] = 0x48dd72d8(0xa148) Read->1+8
response[590] = 0x48dd72d8(0xa148) Read->1+8
response[591] = 0x4c108b48(0xa128) Read->1+8
response[592] = 0x2d820(0x8b90) Read->1+8
response[593] = 0x4c108b48(0xa128) Read->1+8
response[594] = 0x4c108b48(0xa128) Read->1+8
response[595] = 0x850f0808(0xa130) Read->1+8
response[596] = 0x8(0x8b98) Read->1+4
response[597] = 0x850f0808(0xa130) Read->1+8
response[598] = 0x10488b48(0xa138) Read->1+8
response[599] = 0x1d1e0(0x8ba0) Read->1+8
response[600] = 0x10488b48(0xa138) Read->1+8
response[601] = 0x48e1014c(0xa140) Read->1+8
response[602] = 0x48e1014c(0xa140) Read->1+8
response[603] = 0xf801c1e0(0x34820) Read->0+8
response[604] = 0x48e1014c(0xa140) Read->1+8
response[605] = 0x48dd72d8(0xa148) Read->1+8
response[606] = 0x48dd72d8(0xa148) Read->1+8
response[607] = 0x4c108b48(0xa128) Read->1+8
response[608] = 0x2d8a0(0x8ba8) Read->1+8
response[609] = 0x4c108b48(0xa128) Read->1+8
response[610] = 0x4c108b48(0xa128) Read->1+8
response[611] = 0x850f0808(0xa130) Read->1+8
response[612] = 0x8(0x8bb0) Read->1+4
response[613] = 0x850f0808(0xa130) Read->1+8
response[614] = 0x10488b48(0xa138) Read->1+8
response[615] = 0x28658(0x8bb8) Read->1+8
response[616] = 0x10488b48(0xa138) Read->1+8
response[617] = 0x48e1014c(0xa140) Read->1+8
response[618] = 0x48e1014c(0xa140) Read->1+8
response[619] = 0xf8027658(0x348a0) Read->0+8
response[620] = 0x48e1014c(0xa140) Read->1+8
response[621] = 0x48dd72d8(0xa148) Read->1+8
response[622] = 0x48dd72d8(0xa148) Read->1+8
response[623] = 0x4c108b48(0xa128) Read->1+8
response[624] = 0x2d8d8(0x8bc0) Read->1+8
response[625] = 0x4c108b48(0xa128) Read->1+8
response[626] = 0x4c108b48(0xa128) Read->1+8
response[627] = 0x850f0808(0xa130) Read->1+8
response[628] = 0x8(0x8bc8) Read->1+4
response[629] = 0x850f0808(0xa130) Read->1+8
response[630] = 0x10488b48(0xa138) Read->1+8
response[631] = 0x25bec(0x8bd0) Read->1+8
response[632] = 0x10488b48(0xa138) Read->1+8
response[633] = 0x48e1014c(0xa140) Read->1+8
response[634] = 0x48e1014c(0xa140) Read->1+8
response[635] = 0xf8024bec(0x348d8) Read->0+8
response[636] = 0x48e1014c(0xa140) Read->1+8
response[637] = 0x48dd72d8(0xa148) Read->1+8
response[638] = 0x48dd72d8(0xa148) Read->1+8
response[639] = 0x4c108b48(0xa128) Read->1+8
response[640] = 0x2d908(0x8bd8) Read->1+8
response[641] = 0x4c108b48(0xa128) Read->1+8
response[642] = 0x4c108b48(0xa128) Read->1+8
response[643] = 0x850f0808(0xa130) Read->1+8
response[644] = 0x8(0x8be0) Read->1+4
response[645] = 0x850f0808(0xa130) Read->1+8
response[646] = 0x10488b48(0xa138) Read->1+8
response[647] = 0x25c08(0x8be8) Read->1+8
response[648] = 0x10488b48(0xa138) Read->1+8
response[649] = 0x48e1014c(0xa140) Read->1+8
response[650] = 0x48e1014c(0xa140) Read->1+8
response[651] = 0xf8024c08(0x34908) Read->0+8
response[652] = 0x48e1014c(0xa140) Read->1+8
response[653] = 0x48dd72d8(0xa148) Read->1+8
response[654] = 0x48dd72d8(0xa148) Read->1+8
response[655] = 0x4c108b48(0xa128) Read->1+8
response[656] = 0x2d910(0x8bf0) Read->1+8
response[657] = 0x4c108b48(0xa128) Read->1+8
response[658] = 0x4c108b48(0xa128) Read->1+8
response[659] = 0x850f0808(0xa130) Read->1+8
response[660] = 0x8(0x8bf8) Read->1+4
response[661] = 0x850f0808(0xa130) Read->1+8
response[662] = 0x10488b48(0xa138) Read->1+8
response[663] = 0x25c1f(0x8c00) Read->1+8
response[664] = 0x10488b48(0xa138) Read->1+8
response[665] = 0x48e1014c(0xa140) Read->1+8
response[666] = 0x48e1014c(0xa140) Read->1+8
response[667] = 0xf8024c1f(0x34910) Read->0+8
response[668] = 0x48e1014c(0xa140) Read->1+8
response[669] = 0x48dd72d8(0xa148) Read->1+8
response[670] = 0x48dd72d8(0xa148) Read->1+8
response[671] = 0x4c108b48(0xa128) Read->1+8
response[672] = 0x2d940(0x8c08) Read->1+8
response[673] = 0x4c108b48(0xa128) Read->1+8
response[674] = 0x4c108b48(0xa128) Read->1+8
response[675] = 0x850f0808(0xa130) Read->1+8
response[676] = 0x8(0x8c10) Read->1+4
response[677] = 0x850f0808(0xa130) Read->1+8
response[678] = 0x10488b48(0xa138) Read->1+8
response[679] = 0x25c34(0x8c18) Read->1+8
response[680] = 0x10488b48(0xa138) Read->1+8
response[681] = 0x48e1014c(0xa140) Read->1+8
response[682] = 0x48e1014c(0xa140) Read->1+8
response[683] = 0xf8024c34(0x34940) Read->0+8
response[684] = 0x48e1014c(0xa140) Read->1+8
response[685] = 0x48dd72d8(0xa148) Read->1+8
response[686] = 0x48dd72d8(0xa148) Read->1+8
response[687] = 0x4c108b48(0xa128) Read->1+8
response[688] = 0x2d948(0x8c20) Read->1+8
response[689] = 0x4c108b48(0xa128) Read->1+8
response[690] = 0x4c108b48(0xa128) Read->1+8
response[691] = 0x850f0808(0xa130) Read->1+8
response[692] = 0x8(0x8c28) Read->1+4
response[693] = 0x850f0808(0xa130) Read->1+8
response[694] = 0x10488b48(0xa138) Read->1+8
response[695] = 0x28680(0x8c30) Read->1+8
response[696] = 0x10488b48(0xa138) Read->1+8
response[697] = 0x48e1014c(0xa140) Read->1+8
response[698] = 0x48e1014c(0xa140) Read->1+8
response[699] = 0xf8027680(0x34948) Read->0+8
response[700] = 0x48e1014c(0xa140) Read->1+8
response[701] = 0x48dd72d8(0xa148) Read->1+8
response[702] = 0x48dd72d8(0xa148) Read->1+8
response[703] = 0x4c108b48(0xa128) Read->1+8
response[704] = 0x2d980(0x8c38) Read->1+8
response[705] = 0x4c108b48(0xa128) Read->1+8
response[706] = 0x4c108b48(0xa128) Read->1+8
response[707] = 0x850f0808(0xa130) Read->1+8
response[708] = 0x8(0x8c40) Read->1+4
response[709] = 0x850f0808(0xa130) Read->1+8
response[710] = 0x10488b48(0xa138) Read->1+8
response[711] = 0x25c44(0x8c48) Read->1+8
response[712] = 0x10488b48(0xa138) Read->1+8
response[713] = 0x48e1014c(0xa140) Read->1+8
response[714] = 0x48e1014c(0xa140) Read->1+8
response[715] = 0xf8024c44(0x34980) Read->0+8
response[716] = 0x48e1014c(0xa140) Read->1+8
response[717] = 0x48dd72d8(0xa148) Read->1+8
response[718] = 0x48dd72d8(0xa148) Read->1+8
response[719] = 0x4c108b48(0xa128) Read->1+8
response[720] = 0x2d9b8(0x8c50) Read->1+8
response[721] = 0x4c108b48(0xa128) Read->1+8
response[722] = 0x4c108b48(0xa128) Read->1+8
response[723] = 0x850f0808(0xa130) Read->1+8
response[724] = 0x8(0x8c58) Read->1+4
response[725] = 0x850f0808(0xa130) Read->1+8
response[726] = 0x10488b48(0xa138) Read->1+8
response[727] = 0x25c58(0x8c60) Read->1+8
response[728] = 0x10488b48(0xa138) Read->1+8
response[729] = 0x48e1014c(0xa140) Read->1+8
response[730] = 0x48e1014c(0xa140) Read->1+8
response[731] = 0xf8024c58(0x349b8) Read->0+8
response[732] = 0x48e1014c(0xa140) Read->1+8
response[733] = 0x48dd72d8(0xa148) Read->1+8
response[734] = 0x48dd72d8(0xa148) Read->1+8
response[735] = 0x4c108b48(0xa128) Read->1+8
response[736] = 0x2d9f0(0x8c68) Read->1+8
response[737] = 0x4c108b48(0xa128) Read->1+8
response[738] = 0x4c108b48(0xa128) Read->1+8
response[739] = 0x850f0808(0xa130) Read->1+8
response[740] = 0x8(0x8c70) Read->1+4
response[741] = 0x850f0808(0xa130) Read->1+8
response[742] = 0x10488b48(0xa138) Read->1+8
response[743] = 0x25c6d(0x8c78) Read->1+8
response[744] = 0x10488b48(0xa138) Read->1+8
response[745] = 0x48e1014c(0xa140) Read->1+8
response[746] = 0x48e1014c(0xa140) Read->1+8
response[747] = 0xf8024c6d(0x349f0) Read->0+8
response[748] = 0x48e1014c(0xa140) Read->1+8
response[749] = 0x48dd72d8(0xa148) Read->1+8
response[750] = 0x48dd72d8(0xa148) Read->1+8
response[751] = 0x4c108b48(0xa128) Read->1+8
response[752] = 0x2da28(0x8c80) Read->1+8
response[753] = 0x4c108b48(0xa128) Read->1+8
response[754] = 0x4c108b48(0xa128) Read->1+8
response[755] = 0x850f0808(0xa130) Read->1+8
response[756] = 0x8(0x8c88) Read->1+4
response[757] = 0x850f0808(0xa130) Read->1+8
response[758] = 0x10488b48(0xa138) Read->1+8
response[759] = 0x25c81(0x8c90) Read->1+8
response[760] = 0x10488b48(0xa138) Read->1+8
response[761] = 0x48e1014c(0xa140) Read->1+8
response[762] = 0x48e1014c(0xa140) Read->1+8
response[763] = 0xf8024c81(0x34a28) Read->0+8
response[764] = 0x48e1014c(0xa140) Read->1+8
response[765] = 0x48dd72d8(0xa148) Read->1+8
response[766] = 0x48dd72d8(0xa148) Read->1+8
response[767] = 0x4c108b48(0xa128) Read->1+8
response[768] = 0x2da60(0x8c98) Read->1+8
response[769] = 0x4c108b48(0xa128) Read->1+8
response[770] = 0x4c108b48(0xa128) Read->1+8
response[771] = 0x850f0808(0xa130) Read->1+8
response[772] = 0x8(0x8ca0) Read->1+4
response[773] = 0x850f0808(0xa130) Read->1+8
response[774] = 0x10488b48(0xa138) Read->1+8
response[775] = 0x25c9e(0x8ca8) Read->1+8
response[776] = 0x10488b48(0xa138) Read->1+8
response[777] = 0x48e1014c(0xa140) Read->1+8
response[778] = 0x48e1014c(0xa140) Read->1+8
response[779] = 0xf8024c9e(0x34a60) Read->0+8
response[780] = 0x48e1014c(0xa140) Read->1+8
response[781] = 0x48dd72d8(0xa148) Read->1+8
response[782] = 0x48dd72d8(0xa148) Read->1+8
response[783] = 0x4c108b48(0xa128) Read->1+8
response[784] = 0x2da90(0x8cb0) Read->1+8
response[785] = 0x4c108b48(0xa128) Read->1+8
response[786] = 0x4c108b48(0xa128) Read->1+8
response[787] = 0x850f0808(0xa130) Read->1+8
response[788] = 0x8(0x8cb8) Read->1+4
response[789] = 0x850f0808(0xa130) Read->1+8
response[790] = 0x10488b48(0xa138) Read->1+8
response[791] = 0x25cb3(0x8cc0) Read->1+8
response[792] = 0x10488b48(0xa138) Read->1+8
response[793] = 0x48e1014c(0xa140) Read->1+8
response[794] = 0x48e1014c(0xa140) Read->1+8
response[795] = 0xf8024cb3(0x34a90) Read->0+8
response[796] = 0x48e1014c(0xa140) Read->1+8
response[797] = 0x48dd72d8(0xa148) Read->1+8
response[798] = 0x48dd72d8(0xa148) Read->1+8
response[799] = 0x4c108b48(0xa128) Read->1+8
response[800] = 0x2da98(0x8cc8) Read->1+8
response[801] = 0x4c108b48(0xa128) Read->1+8
response[802] = 0x4c108b48(0xa128) Read->1+8
response[803] = 0x850f0808(0xa130) Read->1+8
response[804] = 0x8(0x8cd0) Read->1+4
response[805] = 0x850f0808(0xa130) Read->1+8
response[806] = 0x10488b48(0xa138) Read->1+8
response[807] = 0x286a0(0x8cd8) Read->1+8
response[808] = 0x10488b48(0xa138) Read->1+8
response[809] = 0x48e1014c(0xa140) Read->1+8
response[810] = 0x48e1014c(0xa140) Read->1+8
response[811] = 0xf80276a0(0x34a98) Read->0+8
response[812] = 0x48e1014c(0xa140) Read->1+8
response[813] = 0x48dd72d8(0xa148) Read->1+8
response[814] = 0x48dd72d8(0xa148) Read->1+8
response[815] = 0x4c108b48(0xa128) Read->1+8
response[816] = 0x2dad0(0x8ce0) Read->1+8
response[817] = 0x4c108b48(0xa128) Read->1+8
response[818] = 0x4c108b48(0xa128) Read->1+8
response[819] = 0x850f0808(0xa130) Read->1+8
response[820] = 0x8(0x8ce8) Read->1+4
response[821] = 0x850f0808(0xa130) Read->1+8
response[822] = 0x10488b48(0xa138) Read->1+8
response[823] = 0x25cc3(0x8cf0) Read->1+8
response[824] = 0x10488b48(0xa138) Read->1+8
response[825] = 0x48e1014c(0xa140) Read->1+8
response[826] = 0x48e1014c(0xa140) Read->1+8
response[827] = 0xf8024cc3(0x34ad0) Read->0+8
response[828] = 0x48e1014c(0xa140) Read->1+8
response[829] = 0x48dd72d8(0xa148) Read->1+8
response[830] = 0x48dd72d8(0xa148) Read->1+8
response[831] = 0x4c108b48(0xa128) Read->1+8
response[832] = 0x2db08(0x8cf8) Read->1+8
response[833] = 0x4c108b48(0xa128) Read->1+8
response[834] = 0x4c108b48(0xa128) Read->1+8
response[835] = 0x850f0808(0xa130) Read->1+8
response[836] = 0x8(0x8d00) Read->1+4
response[837] = 0x850f0808(0xa130) Read->1+8
response[838] = 0x10488b48(0xa138) Read->1+8
response[839] = 0x25cd7(0x8d08) Read->1+8
response[840] = 0x10488b48(0xa138) Read->1+8
response[841] = 0x48e1014c(0xa140) Read->1+8
response[842] = 0x48e1014c(0xa140) Read->1+8
response[843] = 0xf8024cd7(0x34b08) Read->0+8
response[844] = 0x48e1014c(0xa140) Read->1+8
response[845] = 0x48dd72d8(0xa148) Read->1+8
response[846] = 0x48dd72d8(0xa148) Read->1+8
response[847] = 0x4c108b48(0xa128) Read->1+8
response[848] = 0x2db38(0x8d10) Read->1+8
response[849] = 0x4c108b48(0xa128) Read->1+8
response[850] = 0x4c108b48(0xa128) Read->1+8
response[851] = 0x850f0808(0xa130) Read->1+8
response[852] = 0x8(0x8d18) Read->1+4
response[853] = 0x850f0808(0xa130) Read->1+8
response[854] = 0x10488b48(0xa138) Read->1+8
response[855] = 0x25cec(0x8d20) Read->1+8
response[856] = 0x10488b48(0xa138) Read->1+8
response[857] = 0x48e1014c(0xa140) Read->1+8
response[858] = 0x48e1014c(0xa140) Read->1+8
response[859] = 0xf8024cec(0x34b38) Read->0+8
response[860] = 0x48e1014c(0xa140) Read->1+8
response[861] = 0x48dd72d8(0xa148) Read->1+8
response[862] = 0x48dd72d8(0xa148) Read->1+8
response[863] = 0x4c108b48(0xa128) Read->1+8
response[864] = 0x2db40(0x8d28) Read->1+8
response[865] = 0x4c108b48(0xa128) Read->1+8
response[866] = 0x4c108b48(0xa128) Read->1+8
response[867] = 0x850f0808(0xa130) Read->1+8
response[868] = 0x8(0x8d30) Read->1+4
response[869] = 0x850f0808(0xa130) Read->1+8
response[870] = 0x10488b48(0xa138) Read->1+8
response[871] = 0x25cfa(0x8d38) Read->1+8
response[872] = 0x10488b48(0xa138) Read->1+8
response[873] = 0x48e1014c(0xa140) Read->1+8
response[874] = 0x48e1014c(0xa140) Read->1+8
response[875] = 0xf8024cfa(0x34b40) Read->0+8
response[876] = 0x48e1014c(0xa140) Read->1+8
response[877] = 0x48dd72d8(0xa148) Read->1+8
response[878] = 0x48dd72d8(0xa148) Read->1+8
response[879] = 0x4c108b48(0xa128) Read->1+8
response[880] = 0x2db70(0x8d40) Read->1+8
response[881] = 0x4c108b48(0xa128) Read->1+8
response[882] = 0x4c108b48(0xa128) Read->1+8
response[883] = 0x850f0808(0xa130) Read->1+8
response[884] = 0x8(0x8d48) Read->1+4
response[885] = 0x850f0808(0xa130) Read->1+8
response[886] = 0x10488b48(0xa138) Read->1+8
response[887] = 0x25d10(0x8d50) Read->1+8
response[888] = 0x10488b48(0xa138) Read->1+8
response[889] = 0x48e1014c(0xa140) Read->1+8
response[890] = 0x48e1014c(0xa140) Read->1+8
response[891] = 0xf8024d10(0x34b70) Read->0+8
response[892] = 0x48e1014c(0xa140) Read->1+8
response[893] = 0x48dd72d8(0xa148) Read->1+8
response[894] = 0x48dd72d8(0xa148) Read->1+8
response[895] = 0x4c108b48(0xa128) Read->1+8
response[896] = 0x2db78(0x8d58) Read->1+8
response[897] = 0x4c108b48(0xa128) Read->1+8
response[898] = 0x4c108b48(0xa128) Read->1+8
response[899] = 0x850f0808(0xa130) Read->1+8
response[900] = 0x8(0x8d60) Read->1+4
response[901] = 0x850f0808(0xa130) Read->1+8
response[902] = 0x10488b48(0xa138) Read->1+8
response[903] = 0x286c8(0x8d68) Read->1+8
response[904] = 0x10488b48(0xa138) Read->1+8
response[905] = 0x48e1014c(0xa140) Read->1+8
response[906] = 0x48e1014c(0xa140) Read->1+8
response[907] = 0xf80276c8(0x34b78) Read->0+8
response[908] = 0x48e1014c(0xa140) Read->1+8
response[909] = 0x48dd72d8(0xa148) Read->1+8
response[910] = 0x48dd72d8(0xa148) Read->1+8
response[911] = 0x4c108b48(0xa128) Read->1+8
response[912] = 0x2dbb0(0x8d70) Read->1+8
response[913] = 0x4c108b48(0xa128) Read->1+8
response[914] = 0x4c108b48(0xa128) Read->1+8
response[915] = 0x850f0808(0xa130) Read->1+8
response[916] = 0x8(0x8d78) Read->1+4
response[917] = 0x850f0808(0xa130) Read->1+8
response[918] = 0x10488b48(0xa138) Read->1+8
response[919] = 0x286f8(0x8d80) Read->1+8
response[920] = 0x10488b48(0xa138) Read->1+8
response[921] = 0x48e1014c(0xa140) Read->1+8
response[922] = 0x48e1014c(0xa140) Read->1+8
response[923] = 0xf80276f8(0x34bb0) Read->0+8
response[924] = 0x48e1014c(0xa140) Read->1+8
response[925] = 0x48dd72d8(0xa148) Read->1+8
response[926] = 0x48dd72d8(0xa148) Read->1+8
response[927] = 0x4c108b48(0xa128) Read->1+8
response[928] = 0x2dbe8(0x8d88) Read->1+8
response[929] = 0x4c108b48(0xa128) Read->1+8
response[930] = 0x4c108b48(0xa128) Read->1+8
response[931] = 0x850f0808(0xa130) Read->1+8
response[932] = 0x8(0x8d90) Read->1+4
response[933] = 0x850f0808(0xa130) Read->1+8
response[934] = 0x10488b48(0xa138) Read->1+8
response[935] = 0x25d21(0x8d98) Read->1+8
response[936] = 0x10488b48(0xa138) Read->1+8
response[937] = 0x48e1014c(0xa140) Read->1+8
response[938] = 0x48e1014c(0xa140) Read->1+8
response[939] = 0xf8024d21(0x34be8) Read->0+8
response[940] = 0x48e1014c(0xa140) Read->1+8
response[941] = 0x48dd72d8(0xa148) Read->1+8
response[942] = 0x48dd72d8(0xa148) Read->1+8
response[943] = 0x4c108b48(0xa128) Read->1+8
response[944] = 0x2dc20(0x8da0) Read->1+8
response[945] = 0x4c108b48(0xa128) Read->1+8
response[946] = 0x4c108b48(0xa128) Read->1+8
response[947] = 0x850f0808(0xa130) Read->1+8
response[948] = 0x8(0x8da8) Read->1+4
response[949] = 0x850f0808(0xa130) Read->1+8
response[950] = 0x10488b48(0xa138) Read->1+8
response[951] = 0x25d33(0x8db0) Read->1+8
response[952] = 0x10488b48(0xa138) Read->1+8
response[953] = 0x48e1014c(0xa140) Read->1+8
response[954] = 0x48e1014c(0xa140) Read->1+8
response[955] = 0xf8024d33(0x34c20) Read->0+8
response[956] = 0x48e1014c(0xa140) Read->1+8
response[957] = 0x48dd72d8(0xa148) Read->1+8
response[958] = 0x48dd72d8(0xa148) Read->1+8
response[959] = 0x4c108b48(0xa128) Read->1+8
response[960] = 0x2dc58(0x8db8) Read->1+8
response[961] = 0x4c108b48(0xa128) Read->1+8
response[962] = 0x4c108b48(0xa128) Read->1+8
response[963] = 0x850f0808(0xa130) Read->1+8
response[964] = 0x8(0x8dc0) Read->1+4
response[965] = 0x850f0808(0xa130) Read->1+8
response[966] = 0x10488b48(0xa138) Read->1+8
response[967] = 0x28720(0x8dc8) Read->1+8
response[968] = 0x10488b48(0xa138) Read->1+8
response[969] = 0x48e1014c(0xa140) Read->1+8
response[970] = 0x48e1014c(0xa140) Read->1+8
response[971] = 0xf8027720(0x34c58) Read->0+8
response[972] = 0x48e1014c(0xa140) Read->1+8
response[973] = 0x48dd72d8(0xa148) Read->1+8
response[974] = 0x48dd72d8(0xa148) Read->1+8
response[975] = 0x4c108b48(0xa128) Read->1+8
response[976] = 0x2dc90(0x8dd0) Read->1+8
response[977] = 0x4c108b48(0xa128) Read->1+8
response[978] = 0x4c108b48(0xa128) Read->1+8
response[979] = 0x850f0808(0xa130) Read->1+8
response[980] = 0x8(0x8dd8) Read->1+4
response[981] = 0x850f0808(0xa130) Read->1+8
response[982] = 0x10488b48(0xa138) Read->1+8
response[983] = 0x25d44(0x8de0) Read->1+8
response[984] = 0x10488b48(0xa138) Read->1+8
response[985] = 0x48e1014c(0xa140) Read->1+8
response[986] = 0x48e1014c(0xa140) Read->1+8
response[987] = 0xf8024d44(0x34c90) Read->0+8
response[988] = 0x48e1014c(0xa140) Read->1+8
response[989] = 0x48dd72d8(0xa148) Read->1+8
response[990] = 0x48dd72d8(0xa148) Read->1+8
response[991] = 0x4c108b48(0xa128) Read->1+8
response[992] = 0x2dcc0(0x8de8) Read->1+8
response[993] = 0x4c108b48(0xa128) Read->1+8
response[994] = 0x4c108b48(0xa128) Read->1+8
response[995] = 0x850f0808(0xa130) Read->1+8
response[996] = 0x8(0x8df0) Read->1+4
response[997] = 0x850f0808(0xa130) Read->1+8
response[998] = 0x10488b48(0xa138) Read->1+8
response[999] = 0x25d5b(0x8df8) Read->1+8
response[1000] = 0x10488b48(0xa138) Read->1+8
response[1001] = 0x48e1014c(0xa140) Read->1+8
response[1002] = 0x48e1014c(0xa140) Read->1+8
response[1003] = 0xf8024d5b(0x34cc0) Read->0+8
response[1004] = 0x48e1014c(0xa140) Read->1+8
response[1005] = 0x48dd72d8(0xa148) Read->1+8
response[1006] = 0x48dd72d8(0xa148) Read->1+8
response[1007] = 0x4c108b48(0xa128) Read->1+8
response[1008] = 0x2dcc8(0x8e00) Read->1+8
response[1009] = 0x4c108b48(0xa128) Read->1+8
response[1010] = 0x4c108b48(0xa128) Read->1+8
response[1011] = 0x850f0808(0xa130) Read->1+8
response[1012] = 0x8(0x8e08) Read->1+4
response[1013] = 0x850f0808(0xa130) Read->1+8
response[1014] = 0x10488b48(0xa138) Read->1+8
response[1015] = 0x25d6c(0x8e10) Read->1+8
response[1016] = 0x10488b48(0xa138) Read->1+8
response[1017] = 0x48e1014c(0xa140) Read->1+8
response[1018] = 0x48e1014c(0xa140) Read->1+8
response[1019] = 0xf8024d6c(0x34cc8) Read->0+8
response[1020] = 0x48e1014c(0xa140) Read->1+8
response[1021] = 0x48dd72d8(0xa148) Read->1+8
response[1022] = 0x48dd72d8(0xa148) Read->1+8
response[1023] = 0x4c108b48(0xa128) Read->1+8
response[1024] = 0x2dcf8(0x8e18) Read->1+8
response[1025] = 0x4c108b48(0xa128) Read->1+8
response[1026] = 0x4c108b48(0xa128) Read->1+8
response[1027] = 0x850f0808(0xa130) Read->1+8
response[1028] = 0x8(0x8e20) Read->1+4
response[1029] = 0x850f0808(0xa130) Read->1+8
response[1030] = 0x10488b48(0xa138) Read->1+8
response[1031] = 0x25d88(0x8e28) Read->1+8
response[1032] = 0x10488b48(0xa138) Read->1+8
response[1033] = 0x48e1014c(0xa140) Read->1+8
response[1034] = 0x48e1014c(0xa140) Read->1+8
response[1035] = 0xf8024d88(0x34cf8) Read->0+8
response[1036] = 0x48e1014c(0xa140) Read->1+8
response[1037] = 0x48dd72d8(0xa148) Read->1+8
response[1038] = 0x48dd72d8(0xa148) Read->1+8
response[1039] = 0x4c108b48(0xa128) Read->1+8
response[1040] = 0x2dd00(0x8e30) Read->1+8
response[1041] = 0x4c108b48(0xa128) Read->1+8
response[1042] = 0x4c108b48(0xa128) Read->1+8
response[1043] = 0x850f0808(0xa130) Read->1+8
response[1044] = 0x8(0x8e38) Read->1+4
response[1045] = 0x850f0808(0xa130) Read->1+8
response[1046] = 0x10488b48(0xa138) Read->1+8
response[1047] = 0x25d9f(0x8e40) Read->1+8
response[1048] = 0x10488b48(0xa138) Read->1+8
response[1049] = 0x48e1014c(0xa140) Read->1+8
response[1050] = 0x48e1014c(0xa140) Read->1+8
response[1051] = 0xf8024d9f(0x34d00) Read->0+8
response[1052] = 0x48e1014c(0xa140) Read->1+8
response[1053] = 0x48dd72d8(0xa148) Read->1+8
response[1054] = 0x48dd72d8(0xa148) Read->1+8
response[1055] = 0x4c108b48(0xa128) Read->1+8
response[1056] = 0x2dd38(0x8e48) Read->1+8
response[1057] = 0x4c108b48(0xa128) Read->1+8
response[1058] = 0x4c108b48(0xa128) Read->1+8
response[1059] = 0x850f0808(0xa130) Read->1+8
response[1060] = 0x8(0x8e50) Read->1+4
response[1061] = 0x850f0808(0xa130) Read->1+8
response[1062] = 0x10488b48(0xa138) Read->1+8
response[1063] = 0x25dbd(0x8e58) Read->1+8
response[1064] = 0x10488b48(0xa138) Read->1+8
response[1065] = 0x48e1014c(0xa140) Read->1+8
response[1066] = 0x48e1014c(0xa140) Read->1+8
response[1067] = 0xf8024dbd(0x34d38) Read->0+8
response[1068] = 0x48e1014c(0xa140) Read->1+8
response[1069] = 0x48dd72d8(0xa148) Read->1+8
response[1070] = 0x48dd72d8(0xa148) Read->1+8
response[1071] = 0x4c108b48(0xa128) Read->1+8
response[1072] = 0x2dd70(0x8e60) Read->1+8
response[1073] = 0x4c108b48(0xa128) Read->1+8
response[1074] = 0x4c108b48(0xa128) Read->1+8
response[1075] = 0x850f0808(0xa130) Read->1+8
response[1076] = 0x8(0x8e68) Read->1+4
response[1077] = 0x850f0808(0xa130) Read->1+8
response[1078] = 0x10488b48(0xa138) Read->1+8
response[1079] = 0x25dd7(0x8e70) Read->1+8
response[1080] = 0x10488b48(0xa138) Read->1+8
response[1081] = 0x48e1014c(0xa140) Read->1+8
response[1082] = 0x48e1014c(0xa140) Read->1+8
response[1083] = 0xf8024dd7(0x34d70) Read->0+8
response[1084] = 0x48e1014c(0xa140) Read->1+8
response[1085] = 0x48dd72d8(0xa148) Read->1+8
response[1086] = 0x48dd72d8(0xa148) Read->1+8
response[1087] = 0x4c108b48(0xa128) Read->1+8
response[1088] = 0x2dda0(0x8e78) Read->1+8
response[1089] = 0x4c108b48(0xa128) Read->1+8
response[1090] = 0x4c108b48(0xa128) Read->1+8
response[1091] = 0x850f0808(0xa130) Read->1+8
response[1092] = 0x8(0x8e80) Read->1+4
response[1093] = 0x850f0808(0xa130) Read->1+8
response[1094] = 0x10488b48(0xa138) Read->1+8
response[1095] = 0x25def(0x8e88) Read->1+8
response[1096] = 0x10488b48(0xa138) Read->1+8
response[1097] = 0x48e1014c(0xa140) Read->1+8
response[1098] = 0x48e1014c(0xa140) Read->1+8
response[1099] = 0xf8024def(0x34da0) Read->0+8
response[1100] = 0x48e1014c(0xa140) Read->1+8
response[1101] = 0x48dd72d8(0xa148) Read->1+8
response[1102] = 0x48dd72d8(0xa148) Read->1+8
response[1103] = 0x4c108b48(0xa128) Read->1+8
response[1104] = 0x2dda8(0x8e90) Read->1+8
response[1105] = 0x4c108b48(0xa128) Read->1+8
response[1106] = 0x4c108b48(0xa128) Read->1+8
response[1107] = 0x850f0808(0xa130) Read->1+8
response[1108] = 0x8(0x8e98) Read->1+4
response[1109] = 0x850f0808(0xa130) Read->1+8
response[1110] = 0x10488b48(0xa138) Read->1+8
response[1111] = 0x28748(0x8ea0) Read->1+8
response[1112] = 0x10488b48(0xa138) Read->1+8
response[1113] = 0x48e1014c(0xa140) Read->1+8
response[1114] = 0x48e1014c(0xa140) Read->1+8
response[1115] = 0xf8027748(0x34da8) Read->0+8
response[1116] = 0x48e1014c(0xa140) Read->1+8
response[1117] = 0x48dd72d8(0xa148) Read->1+8
response[1118] = 0x48dd72d8(0xa148) Read->1+8
response[1119] = 0x4c108b48(0xa128) Read->1+8
response[1120] = 0x2dde0(0x8ea8) Read->1+8
response[1121] = 0x4c108b48(0xa128) Read->1+8
response[1122] = 0x4c108b48(0xa128) Read->1+8
response[1123] = 0x850f0808(0xa130) Read->1+8
response[1124] = 0x8(0x8eb0) Read->1+4
response[1125] = 0x850f0808(0xa130) Read->1+8
response[1126] = 0x10488b48(0xa138) Read->1+8
response[1127] = 0x25e01(0x8eb8) Read->1+8
response[1128] = 0x10488b48(0xa138) Read->1+8
response[1129] = 0x48e1014c(0xa140) Read->1+8
response[1130] = 0x48e1014c(0xa140) Read->1+8
response[1131] = 0xf8024e01(0x34de0) Read->0+8
response[1132] = 0x48e1014c(0xa140) Read->1+8
response[1133] = 0x48dd72d8(0xa148) Read->1+8
response[1134] = 0x48dd72d8(0xa148) Read->1+8
response[1135] = 0x4c108b48(0xa128) Read->1+8
response[1136] = 0x2de18(0x8ec0) Read->1+8
response[1137] = 0x4c108b48(0xa128) Read->1+8
response[1138] = 0x4c108b48(0xa128) Read->1+8
response[1139] = 0x850f0808(0xa130) Read->1+8
response[1140] = 0x8(0x8ec8) Read->1+4
response[1141] = 0x850f0808(0xa130) Read->1+8
response[1142] = 0x10488b48(0xa138) Read->1+8
response[1143] = 0x25e19(0x8ed0) Read->1+8
response[1144] = 0x10488b48(0xa138) Read->1+8
response[1145] = 0x48e1014c(0xa140) Read->1+8
response[1146] = 0x48e1014c(0xa140) Read->1+8
response[1147] = 0xf8024e19(0x34e18) Read->0+8
response[1148] = 0x48e1014c(0xa140) Read->1+8
response[1149] = 0x48dd72d8(0xa148) Read->1+8
response[1150] = 0x48dd72d8(0xa148) Read->1+8
response[1151] = 0x4c108b48(0xa128) Read->1+8
response[1152] = 0x2de48(0x8ed8) Read->1+8
response[1153] = 0x4c108b48(0xa128) Read->1+8
response[1154] = 0x4c108b48(0xa128) Read->1+8
response[1155] = 0x850f0808(0xa130) Read->1+8
response[1156] = 0x8(0x8ee0) Read->1+4
response[1157] = 0x850f0808(0xa130) Read->1+8
response[1158] = 0x10488b48(0xa138) Read->1+8
response[1159] = 0x25e2c(0x8ee8) Read->1+8
response[1160] = 0x10488b48(0xa138) Read->1+8
response[1161] = 0x48e1014c(0xa140) Read->1+8
response[1162] = 0x48e1014c(0xa140) Read->1+8
response[1163] = 0xf8024e2c(0x34e48) Read->0+8
response[1164] = 0x48e1014c(0xa140) Read->1+8
response[1165] = 0x48dd72d8(0xa148) Read->1+8
response[1166] = 0x48dd72d8(0xa148) Read->1+8
response[1167] = 0x48dd72d8(0xa148) Read->1+8
response[1168] = 0xf000002(0xa150) Read->1+8
response[1169] = 0xf802cf68(0x35bb8) Read->1+8
response[1170] = 0xf000002(0xa150) Read->1+8
response[1171] = 0x58d4c00(0xa158) Read->1+8
response[1172] = 0x58d4c00(0xa158) Read->1+8
response[1173] = 0x77de3948(0xa160) Read->1+8
response[1174] = 0x77de3948(0xa160) Read->1+8
response[1175] = 0x54860fde(0xa180) Read->1+8
response[1176] = 0x48086b8b(0xa188) Read->1+8
response[1177] = 0x6(0x8ef8) Read->1+8
response[1178] = 0x48086b8b(0xa188) Read->1+8
response[1179] = 0x2dfd8(0x8ef0) Read->1+8
response[1180] = 0x48086b8b(0xa188) Read->1+8
response[1181] = 0xee894de8(0xa190) Read->1+8
response[1182] = 0xee894de8(0xa190) Read->1+8
response[1183] = 0xee894de8(0xa190) Read->1+8
response[1184] = 0xee894de8(0xa190) Read->1+8
response[1185] = 0x4820e8c1(0xa198) Read->1+8
response[1186] = 0x4820e8c1(0xa198) Read->1+8
response[1187] = 0x4820e8c1(0xa198) Read->1+8
response[1188] = 0x41c7148d(0xa1a0) Read->1+8
response[1189] = 0x41c7148d(0xa1a0) Read->1+8
response[1190] = 0x41c7148d(0xa1a0) Read->1+8
response[1191] = 0x48c031d1(0xa1a8) Read->1+8
response[1192] = 0x48c031d1(0xa1a8) Read->1+8
response[1193] = 0x48c031d1(0xa1a8) Read->1+8
response[1194] = 0x48c031d1(0xa1a8) Read->1+8
response[1195] = 0x4ab60f44(0xa1b0) Read->1+8
response[1196] = 0x11(0x85e4) Read->1+1
response[1197] = 0x4ab60f44(0xa1b0) Read->1+8
response[1198] = 0x8b480652(0xa1b8) Read->1+8
response[1199] = 0x18(0x85e6) Read->1+2
response[1200] = 0x8b480652(0xa1b8) Read->1+8
response[1201] = 0x2f160(0x85e8) Read->1+8
response[1202] = 0x8b480652(0xa1b8) Read->1+8
response[1203] = 0x41660fe1(0xa1c0) Read->1+8
response[1204] = 0x41660fe1(0xa1c0) Read->1+8
response[1205] = 0x41660fe1(0xa1c0) Read->1+8
response[1206] = 0xc384(0xa1c8) Read->1+8
response[1207] = 0xc384(0xa1c8) Read->1+8
response[1208] = 0x2c814(0xa1d0) Read->1+8
response[1209] = 0xf7fff000(0x359e8) Read->1+8
response[1210] = 0x2c814(0xa1d0) Read->1+8
response[1211] = 0xf2840f(0xa1d8) Read->1+8
response[1212] = 0xf2840f(0xa1d8) Read->1+8
response[1213] = 0x840f12fe(0xa1e0) Read->1+8
response[1214] = 0x840f12fe(0xa1e0) Read->1+8
response[1215] = 0xf7414e77(0xa1e8) Read->1+8
response[1216] = 0xf7414e77(0xa1e8) Read->1+8
response[1217] = 0x79840fff(0xa1f0) Read->1+8
response[1218] = 0x79840fff(0xa1f0) Read->1+8
response[1219] = 0x5fe8349(0xa170) Read->1+8
response[1220] = 0x5fe8349(0xa170) Read->1+8
response[1221] = 0x83480000(0xa178) Read->1+8
response[1222] = 0x10430348(0xa260) Read->1+8
response[1223] = 0x0(0x8f00) Read->1+8
response[1224] = 0x10430348(0xa260) Read->1+8
response[1225] = 0xf802e160(0x34fd8) Read->0+8
response[1226] = 0x10430348(0xa260) Read->1+8
response[1227] = 0xffffff0e(0xa268) Read->1+8
response[1228] = 0x83480000(0xa178) Read->1+8
response[1229] = 0x83480000(0xa178) Read->1+8
response[1230] = 0x54860fde(0xa180) Read->1+8
response[1231] = 0x54860fde(0xa180) Read->1+8
response[1232] = 0x54860fde(0xa180) Read->1+8
response[1233] = 0x48086b8b(0xa188) Read->1+8
response[1234] = 0x6(0x8f10) Read->1+8
response[1235] = 0x48086b8b(0xa188) Read->1+8
response[1236] = 0x2dfe0(0x8f08) Read->1+8
response[1237] = 0x48086b8b(0xa188) Read->1+8
response[1238] = 0xee894de8(0xa190) Read->1+8
response[1239] = 0xee894de8(0xa190) Read->1+8
response[1240] = 0xee894de8(0xa190) Read->1+8
response[1241] = 0xee894de8(0xa190) Read->1+8
response[1242] = 0x4820e8c1(0xa198) Read->1+8
response[1243] = 0x4820e8c1(0xa198) Read->1+8
response[1244] = 0x4820e8c1(0xa198) Read->1+8
response[1245] = 0x41c7148d(0xa1a0) Read->1+8
response[1246] = 0x41c7148d(0xa1a0) Read->1+8
response[1247] = 0x41c7148d(0xa1a0) Read->1+8
response[1248] = 0x48c031d1(0xa1a8) Read->1+8
response[1249] = 0x48c031d1(0xa1a8) Read->1+8
response[1250] = 0x48c031d1(0xa1a8) Read->1+8
response[1251] = 0x48c031d1(0xa1a8) Read->1+8
response[1252] = 0x4ab60f44(0xa1b0) Read->1+8
response[1253] = 0x22(0x859c) Read->1+1
response[1254] = 0x4ab60f44(0xa1b0) Read->1+8
response[1255] = 0x8b480652(0xa1b8) Read->1+8
response[1256] = 0xe(0x859e) Read->1+2
response[1257] = 0x8b480652(0xa1b8) Read->1+8
response[1258] = 0x1d600(0x85a0) Read->1+8
response[1259] = 0x8b480652(0xa1b8) Read->1+8
response[1260] = 0x41660fe1(0xa1c0) Read->1+8
response[1261] = 0x41660fe1(0xa1c0) Read->1+8
response[1262] = 0x41660fe1(0xa1c0) Read->1+8
response[1263] = 0xc384(0xa1c8) Read->1+8
response[1264] = 0xc384(0xa1c8) Read->1+8
response[1265] = 0x2c814(0xa1d0) Read->1+8
response[1266] = 0xf7fff000(0x359e8) Read->1+8
response[1267] = 0x2c814(0xa1d0) Read->1+8
response[1268] = 0xf2840f(0xa1d8) Read->1+8
response[1269] = 0xf2840f(0xa1d8) Read->1+8
response[1270] = 0x840f12fe(0xa1e0) Read->1+8
response[1271] = 0x840f12fe(0xa1e0) Read->1+8
response[1272] = 0xf7414e77(0xa1e8) Read->1+8
response[1273] = 0xf7414e77(0xa1e8) Read->1+8
response[1274] = 0x79840fff(0xa1f0) Read->1+8
response[1275] = 0x79840fff(0xa1f0) Read->1+8
response[1276] = 0x5fe8349(0xa170) Read->1+8
response[1277] = 0x5fe8349(0xa170) Read->1+8
response[1278] = 0x83480000(0xa178) Read->1+8
response[1279] = 0x10430348(0xa260) Read->1+8
response[1280] = 0x0(0x8f18) Read->1+8
response[1281] = 0x10430348(0xa260) Read->1+8
response[1282] = 0xf801c600(0x34fe0) Read->0+8
response[1283] = 0x10430348(0xa260) Read->1+8
response[1284] = 0xffffff0e(0xa268) Read->1+8
response[1285] = 0x83480000(0xa178) Read->1+8
response[1286] = 0x83480000(0xa178) Read->1+8
response[1287] = 0x54860fde(0xa180) Read->1+8
response[1288] = 0x54860fde(0xa180) Read->1+8
response[1289] = 0x54860fde(0xa180) Read->1+8
response[1290] = 0x48086b8b(0xa188) Read->1+8
response[1291] = 0x7(0x8f28) Read->1+8
response[1292] = 0x48086b8b(0xa188) Read->1+8
response[1293] = 0x2e018(0x8f20) Read->1+8
response[1294] = 0x48086b8b(0xa188) Read->1+8
response[1295] = 0xee894de8(0xa190) Read->1+8
response[1296] = 0xee894de8(0xa190) Read->1+8
response[1297] = 0xee894de8(0xa190) Read->1+8
response[1298] = 0xee894de8(0xa190) Read->1+8
response[1299] = 0x4820e8c1(0xa198) Read->1+8
response[1300] = 0x4820e8c1(0xa198) Read->1+8
response[1301] = 0x4820e8c1(0xa198) Read->1+8
response[1302] = 0x41c7148d(0xa1a0) Read->1+8
response[1303] = 0x41c7148d(0xa1a0) Read->1+8
response[1304] = 0x41c7148d(0xa1a0) Read->1+8
response[1305] = 0x48c031d1(0xa1a8) Read->1+8
response[1306] = 0x48c031d1(0xa1a8) Read->1+8
response[1307] = 0x48c031d1(0xa1a8) Read->1+8
response[1308] = 0x48c031d1(0xa1a8) Read->1+8
response[1309] = 0x4ab60f44(0xa1b0) Read->1+8
response[1310] = 0x12(0x8554) Read->1+1
response[1311] = 0x4ab60f44(0xa1b0) Read->1+8
response[1312] = 0x8b480652(0xa1b8) Read->1+8
response[1313] = 0xe(0x8556) Read->1+2
response[1314] = 0x8b480652(0xa1b8) Read->1+8
response[1315] = 0x1dc50(0x8558) Read->1+8
response[1316] = 0x8b480652(0xa1b8) Read->1+8
response[1317] = 0x41660fe1(0xa1c0) Read->1+8
response[1318] = 0x41660fe1(0xa1c0) Read->1+8
response[1319] = 0x41660fe1(0xa1c0) Read->1+8
response[1320] = 0xc384(0xa1c8) Read->1+8
response[1321] = 0xc384(0xa1c8) Read->1+8
response[1322] = 0x2c814(0xa1d0) Read->1+8
response[1323] = 0xf7fff000(0x359e8) Read->1+8
response[1324] = 0x2c814(0xa1d0) Read->1+8
response[1325] = 0xf2840f(0xa1d8) Read->1+8
response[1326] = 0xf2840f(0xa1d8) Read->1+8
response[1327] = 0x840f12fe(0xa1e0) Read->1+8
response[1328] = 0x840f12fe(0xa1e0) Read->1+8
response[1329] = 0xf7414e77(0xa1e8) Read->1+8
response[1330] = 0xf7414e77(0xa1e8) Read->1+8
response[1331] = 0x79840fff(0xa1f0) Read->1+8
response[1332] = 0x79840fff(0xa1f0) Read->1+8
response[1333] = 0x5fe8349(0xa170) Read->1+8
response[1334] = 0x5fe8349(0xa170) Read->1+8
response[1335] = 0x83480000(0xa178) Read->1+8
response[1336] = 0x10430348(0xa260) Read->1+8
response[1337] = 0x0(0x8f30) Read->1+8
response[1338] = 0x10430348(0xa260) Read->1+8
response[1339] = 0xf801cc50(0x35018) Read->0+8
response[1340] = 0x10430348(0xa260) Read->1+8
response[1341] = 0xffffff0e(0xa268) Read->1+8
response[1342] = 0x83480000(0xa178) Read->1+8
response[1343] = 0x83480000(0xa178) Read->1+8
response[1344] = 0x54860fde(0xa180) Read->1+8
response[1345] = 0x54860fde(0xa180) Read->1+8
response[1346] = 0x54860fde(0xa180) Read->1+8
response[1347] = 0x48086b8b(0xa188) Read->1+8
response[1348] = 0x7(0x8f40) Read->1+8
response[1349] = 0x48086b8b(0xa188) Read->1+8
response[1350] = 0x2e020(0x8f38) Read->1+8
response[1351] = 0x48086b8b(0xa188) Read->1+8
response[1352] = 0xee894de8(0xa190) Read->1+8
response[1353] = 0xee894de8(0xa190) Read->1+8
response[1354] = 0xee894de8(0xa190) Read->1+8
response[1355] = 0xee894de8(0xa190) Read->1+8
response[1356] = 0x4820e8c1(0xa198) Read->1+8
response[1357] = 0x4820e8c1(0xa198) Read->1+8
response[1358] = 0x4820e8c1(0xa198) Read->1+8
response[1359] = 0x41c7148d(0xa1a0) Read->1+8
response[1360] = 0x41c7148d(0xa1a0) Read->1+8
response[1361] = 0x41c7148d(0xa1a0) Read->1+8
response[1362] = 0x48c031d1(0xa1a8) Read->1+8
response[1363] = 0x48c031d1(0xa1a8) Read->1+8
response[1364] = 0x48c031d1(0xa1a8) Read->1+8
response[1365] = 0x48c031d1(0xa1a8) Read->1+8
response[1366] = 0x4ab60f44(0xa1b0) Read->1+8
response[1367] = 0x22(0x877c) Read->1+1
response[1368] = 0x4ab60f44(0xa1b0) Read->1+8
response[1369] = 0x8b480652(0xa1b8) Read->1+8
response[1370] = 0xe(0x877e) Read->1+2
response[1371] = 0x8b480652(0xa1b8) Read->1+8
response[1372] = 0x1d4a0(0x8780) Read->1+8
response[1373] = 0x8b480652(0xa1b8) Read->1+8
response[1374] = 0x41660fe1(0xa1c0) Read->1+8
response[1375] = 0x41660fe1(0xa1c0) Read->1+8
response[1376] = 0x41660fe1(0xa1c0) Read->1+8
response[1377] = 0xc384(0xa1c8) Read->1+8
response[1378] = 0xc384(0xa1c8) Read->1+8
response[1379] = 0x2c814(0xa1d0) Read->1+8
response[1380] = 0xf7fff000(0x359e8) Read->1+8
response[1381] = 0x2c814(0xa1d0) Read->1+8
response[1382] = 0xf2840f(0xa1d8) Read->1+8
response[1383] = 0xf2840f(0xa1d8) Read->1+8
response[1384] = 0x840f12fe(0xa1e0) Read->1+8
response[1385] = 0x840f12fe(0xa1e0) Read->1+8
response[1386] = 0xf7414e77(0xa1e8) Read->1+8
response[1387] = 0xf7414e77(0xa1e8) Read->1+8
response[1388] = 0x79840fff(0xa1f0) Read->1+8
response[1389] = 0x79840fff(0xa1f0) Read->1+8
response[1390] = 0x5fe8349(0xa170) Read->1+8
response[1391] = 0x5fe8349(0xa170) Read->1+8
response[1392] = 0x83480000(0xa178) Read->1+8
response[1393] = 0x10430348(0xa260) Read->1+8
response[1394] = 0x0(0x8f48) Read->1+8
response[1395] = 0x10430348(0xa260) Read->1+8
response[1396] = 0xf801c4a0(0x35020) Read->0+8
response[1397] = 0x10430348(0xa260) Read->1+8
response[1398] = 0xffffff0e(0xa268) Read->1+8
response[1399] = 0x83480000(0xa178) Read->1+8
response[1400] = 0x83480000(0xa178) Read->1+8
response[1401] = 0x54860fde(0xa180) Read->1+8
response[1402] = 0x54860fde(0xa180) Read->1+8
response[1403] = 0x54860fde(0xa180) Read->1+8
response[1404] = 0x48086b8b(0xa188) Read->1+8
response[1405] = 0x7(0x8f58) Read->1+8
response[1406] = 0x48086b8b(0xa188) Read->1+8
response[1407] = 0x2e028(0x8f50) Read->1+8
response[1408] = 0x48086b8b(0xa188) Read->1+8
response[1409] = 0xee894de8(0xa190) Read->1+8
response[1410] = 0xee894de8(0xa190) Read->1+8
response[1411] = 0xee894de8(0xa190) Read->1+8
response[1412] = 0xee894de8(0xa190) Read->1+8
response[1413] = 0x4820e8c1(0xa198) Read->1+8
response[1414] = 0x4820e8c1(0xa198) Read->1+8
response[1415] = 0x4820e8c1(0xa198) Read->1+8
response[1416] = 0x41c7148d(0xa1a0) Read->1+8
response[1417] = 0x41c7148d(0xa1a0) Read->1+8
response[1418] = 0x41c7148d(0xa1a0) Read->1+8
response[1419] = 0x48c031d1(0xa1a8) Read->1+8
response[1420] = 0x48c031d1(0xa1a8) Read->1+8
response[1421] = 0x48c031d1(0xa1a8) Read->1+8
response[1422] = 0x48c031d1(0xa1a8) Read->1+8
response[1423] = 0x4ab60f44(0xa1b0) Read->1+8
response[1424] = 0x12(0x84f4) Read->1+1
response[1425] = 0x4ab60f44(0xa1b0) Read->1+8
response[1426] = 0x8b480652(0xa1b8) Read->1+8
response[1427] = 0xe(0x84f6) Read->1+2
response[1428] = 0x8b480652(0xa1b8) Read->1+8
response[1429] = 0x1da80(0x84f8) Read->1+8
response[1430] = 0x8b480652(0xa1b8) Read->1+8
response[1431] = 0x41660fe1(0xa1c0) Read->1+8
response[1432] = 0x41660fe1(0xa1c0) Read->1+8
response[1433] = 0x41660fe1(0xa1c0) Read->1+8
response[1434] = 0xc384(0xa1c8) Read->1+8
response[1435] = 0xc384(0xa1c8) Read->1+8
response[1436] = 0x2c814(0xa1d0) Read->1+8
response[1437] = 0xf7fff000(0x359e8) Read->1+8
response[1438] = 0x2c814(0xa1d0) Read->1+8
response[1439] = 0xf2840f(0xa1d8) Read->1+8
response[1440] = 0xf2840f(0xa1d8) Read->1+8
response[1441] = 0x840f12fe(0xa1e0) Read->1+8
response[1442] = 0x840f12fe(0xa1e0) Read->1+8
response[1443] = 0xf7414e77(0xa1e8) Read->1+8
response[1444] = 0xf7414e77(0xa1e8) Read->1+8
response[1445] = 0x79840fff(0xa1f0) Read->1+8
response[1446] = 0x79840fff(0xa1f0) Read->1+8
response[1447] = 0x5fe8349(0xa170) Read->1+8
response[1448] = 0x5fe8349(0xa170) Read->1+8
response[1449] = 0x83480000(0xa178) Read->1+8
response[1450] = 0x10430348(0xa260) Read->1+8
response[1451] = 0x0(0x8f60) Read->1+8
response[1452] = 0x10430348(0xa260) Read->1+8
response[1453] = 0xf801ca80(0x35028) Read->0+8
response[1454] = 0x10430348(0xa260) Read->1+8
response[1455] = 0xffffff0e(0xa268) Read->1+8
response[1456] = 0x83480000(0xa178) Read->1+8
response[1457] = 0x83480000(0xa178) Read->1+8
response[1458] = 0x54860fde(0xa180) Read->1+8
response[1459] = 0x54860fde(0xa180) Read->1+8
response[1460] = 0x54860fde(0xa180) Read->1+8
response[1461] = 0x48086b8b(0xa188) Read->1+8
response[1462] = 0x7(0x8f70) Read->1+8
response[1463] = 0x48086b8b(0xa188) Read->1+8
response[1464] = 0x2e030(0x8f68) Read->1+8
response[1465] = 0x48086b8b(0xa188) Read->1+8
response[1466] = 0xee894de8(0xa190) Read->1+8
response[1467] = 0xee894de8(0xa190) Read->1+8
response[1468] = 0xee894de8(0xa190) Read->1+8
response[1469] = 0xee894de8(0xa190) Read->1+8
response[1470] = 0x4820e8c1(0xa198) Read->1+8
response[1471] = 0x4820e8c1(0xa198) Read->1+8
response[1472] = 0x4820e8c1(0xa198) Read->1+8
response[1473] = 0x41c7148d(0xa1a0) Read->1+8
response[1474] = 0x41c7148d(0xa1a0) Read->1+8
response[1475] = 0x41c7148d(0xa1a0) Read->1+8
response[1476] = 0x48c031d1(0xa1a8) Read->1+8
response[1477] = 0x48c031d1(0xa1a8) Read->1+8
response[1478] = 0x48c031d1(0xa1a8) Read->1+8
response[1479] = 0x48c031d1(0xa1a8) Read->1+8
response[1480] = 0x4ab60f44(0xa1b0) Read->1+8
response[1481] = 0x22(0x865c) Read->1+1
response[1482] = 0x4ab60f44(0xa1b0) Read->1+8
response[1483] = 0x8b480652(0xa1b8) Read->1+8
response[1484] = 0xe(0x865e) Read->1+2
response[1485] = 0x8b480652(0xa1b8) Read->1+8
response[1486] = 0x1d5c0(0x8660) Read->1+8
response[1487] = 0x8b480652(0xa1b8) Read->1+8
response[1488] = 0x41660fe1(0xa1c0) Read->1+8
response[1489] = 0x41660fe1(0xa1c0) Read->1+8
response[1490] = 0x41660fe1(0xa1c0) Read->1+8
response[1491] = 0xc384(0xa1c8) Read->1+8
response[1492] = 0xc384(0xa1c8) Read->1+8
response[1493] = 0x2c814(0xa1d0) Read->1+8
response[1494] = 0xf7fff000(0x359e8) Read->1+8
response[1495] = 0x2c814(0xa1d0) Read->1+8
response[1496] = 0xf2840f(0xa1d8) Read->1+8
response[1497] = 0xf2840f(0xa1d8) Read->1+8
response[1498] = 0x840f12fe(0xa1e0) Read->1+8
response[1499] = 0x840f12fe(0xa1e0) Read->1+8
response[1500] = 0xf7414e77(0xa1e8) Read->1+8
response[1501] = 0xf7414e77(0xa1e8) Read->1+8
response[1502] = 0x79840fff(0xa1f0) Read->1+8
response[1503] = 0x79840fff(0xa1f0) Read->1+8
response[1504] = 0x5fe8349(0xa170) Read->1+8
response[1505] = 0x5fe8349(0xa170) Read->1+8
response[1506] = 0x83480000(0xa178) Read->1+8
response[1507] = 0x10430348(0xa260) Read->1+8
response[1508] = 0x0(0x8f78) Read->1+8
response[1509] = 0x10430348(0xa260) Read->1+8
response[1510] = 0xf801c5c0(0x35030) Read->0+8
response[1511] = 0x10430348(0xa260) Read->1+8
response[1512] = 0xffffff0e(0xa268) Read->1+8
response[1513] = 0x83480000(0xa178) Read->1+8
response[1514] = 0x83480000(0xa178) Read->1+8
response[1515] = 0x54860fde(0xa180) Read->1+8
response[1516] = 0x54860fde(0xa180) Read->1+8
response[1517] = 0x54860fde(0xa180) Read->1+8
response[1518] = 0x48086b8b(0xa188) Read->1+8
response[1519] = 0x7(0x8f88) Read->1+8
response[1520] = 0x48086b8b(0xa188) Read->1+8
response[1521] = 0x2e038(0x8f80) Read->1+8
response[1522] = 0x48086b8b(0xa188) Read->1+8
response[1523] = 0xee894de8(0xa190) Read->1+8
response[1524] = 0xee894de8(0xa190) Read->1+8
response[1525] = 0xee894de8(0xa190) Read->1+8
response[1526] = 0xee894de8(0xa190) Read->1+8
response[1527] = 0x4820e8c1(0xa198) Read->1+8
response[1528] = 0x4820e8c1(0xa198) Read->1+8
response[1529] = 0x4820e8c1(0xa198) Read->1+8
response[1530] = 0x41c7148d(0xa1a0) Read->1+8
response[1531] = 0x41c7148d(0xa1a0) Read->1+8
response[1532] = 0x41c7148d(0xa1a0) Read->1+8
response[1533] = 0x48c031d1(0xa1a8) Read->1+8
response[1534] = 0x48c031d1(0xa1a8) Read->1+8
response[1535] = 0x48c031d1(0xa1a8) Read->1+8
response[1536] = 0x48c031d1(0xa1a8) Read->1+8
response[1537] = 0x4ab60f44(0xa1b0) Read->1+8
response[1538] = 0x22(0x85b4) Read->1+1
response[1539] = 0x4ab60f44(0xa1b0) Read->1+8
response[1540] = 0x8b480652(0xa1b8) Read->1+8
response[1541] = 0xe(0x85b6) Read->1+2
response[1542] = 0x8b480652(0xa1b8) Read->1+8
response[1543] = 0x1d7f0(0x85b8) Read->1+8
response[1544] = 0x8b480652(0xa1b8) Read->1+8
response[1545] = 0x41660fe1(0xa1c0) Read->1+8
response[1546] = 0x41660fe1(0xa1c0) Read->1+8
response[1547] = 0x41660fe1(0xa1c0) Read->1+8
response[1548] = 0xc384(0xa1c8) Read->1+8
response[1549] = 0xc384(0xa1c8) Read->1+8
response[1550] = 0x2c814(0xa1d0) Read->1+8
response[1551] = 0xf7fff000(0x359e8) Read->1+8
response[1552] = 0x2c814(0xa1d0) Read->1+8
response[1553] = 0xf2840f(0xa1d8) Read->1+8
response[1554] = 0xf2840f(0xa1d8) Read->1+8
response[1555] = 0x840f12fe(0xa1e0) Read->1+8
response[1556] = 0x840f12fe(0xa1e0) Read->1+8
response[1557] = 0xf7414e77(0xa1e8) Read->1+8
response[1558] = 0xf7414e77(0xa1e8) Read->1+8
response[1559] = 0x79840fff(0xa1f0) Read->1+8
response[1560] = 0x79840fff(0xa1f0) Read->1+8
response[1561] = 0x5fe8349(0xa170) Read->1+8
response[1562] = 0x5fe8349(0xa170) Read->1+8
response[1563] = 0x83480000(0xa178) Read->1+8
response[1564] = 0x10430348(0xa260) Read->1+8
response[1565] = 0x0(0x8f90) Read->1+8
response[1566] = 0x10430348(0xa260) Read->1+8
response[1567] = 0xf801c7f0(0x35038) Read->0+8
response[1568] = 0x10430348(0xa260) Read->1+8
response[1569] = 0xffffff0e(0xa268) Read->1+8
response[1570] = 0x83480000(0xa178) Read->1+8
response[1571] = 0x83480000(0xa178) Read->1+8
response[1572] = 0x54860fde(0xa180) Read->1+8
response[1573] = 0x54860fde(0xa180) Read->1+8
response[1574] = 0x54860fde(0xa180) Read->1+8
response[1575] = 0x48086b8b(0xa188) Read->1+8
response[1576] = 0x7(0x8fa0) Read->1+8
response[1577] = 0x48086b8b(0xa188) Read->1+8
response[1578] = 0x2e040(0x8f98) Read->1+8
response[1579] = 0x48086b8b(0xa188) Read->1+8
response[1580] = 0xee894de8(0xa190) Read->1+8
response[1581] = 0xee894de8(0xa190) Read->1+8
response[1582] = 0xee894de8(0xa190) Read->1+8
response[1583] = 0xee894de8(0xa190) Read->1+8
response[1584] = 0x4820e8c1(0xa198) Read->1+8
response[1585] = 0x4820e8c1(0xa198) Read->1+8
response[1586] = 0x4820e8c1(0xa198) Read->1+8
response[1587] = 0x41c7148d(0xa1a0) Read->1+8
response[1588] = 0x41c7148d(0xa1a0) Read->1+8
response[1589] = 0x41c7148d(0xa1a0) Read->1+8
response[1590] = 0x48c031d1(0xa1a8) Read->1+8
response[1591] = 0x48c031d1(0xa1a8) Read->1+8
response[1592] = 0x48c031d1(0xa1a8) Read->1+8
response[1593] = 0x48c031d1(0xa1a8) Read->1+8
response[1594] = 0x4ab60f44(0xa1b0) Read->1+8
response[1595] = 0x12(0x86ec) Read->1+1
response[1596] = 0x4ab60f44(0xa1b0) Read->1+8
response[1597] = 0x8b480652(0xa1b8) Read->1+8
response[1598] = 0xe(0x86ee) Read->1+2
response[1599] = 0x8b480652(0xa1b8) Read->1+8
response[1600] = 0x1dad0(0x86f0) Read->1+8
response[1601] = 0x8b480652(0xa1b8) Read->1+8
response[1602] = 0x41660fe1(0xa1c0) Read->1+8
response[1603] = 0x41660fe1(0xa1c0) Read->1+8
response[1604] = 0x41660fe1(0xa1c0) Read->1+8
response[1605] = 0xc384(0xa1c8) Read->1+8
response[1606] = 0xc384(0xa1c8) Read->1+8
response[1607] = 0x2c814(0xa1d0) Read->1+8
response[1608] = 0xf7fff000(0x359e8) Read->1+8
response[1609] = 0x2c814(0xa1d0) Read->1+8
response[1610] = 0xf2840f(0xa1d8) Read->1+8
response[1611] = 0xf2840f(0xa1d8) Read->1+8
response[1612] = 0x840f12fe(0xa1e0) Read->1+8
response[1613] = 0x840f12fe(0xa1e0) Read->1+8
response[1614] = 0xf7414e77(0xa1e8) Read->1+8
response[1615] = 0xf7414e77(0xa1e8) Read->1+8
response[1616] = 0x79840fff(0xa1f0) Read->1+8
response[1617] = 0x79840fff(0xa1f0) Read->1+8
response[1618] = 0x5fe8349(0xa170) Read->1+8
response[1619] = 0x5fe8349(0xa170) Read->1+8
response[1620] = 0x83480000(0xa178) Read->1+8
response[1621] = 0x10430348(0xa260) Read->1+8
response[1622] = 0x0(0x8fa8) Read->1+8
response[1623] = 0x10430348(0xa260) Read->1+8
response[1624] = 0xf801cad0(0x35040) Read->0+8
response[1625] = 0x10430348(0xa260) Read->1+8
response[1626] = 0xffffff0e(0xa268) Read->1+8
response[1627] = 0x83480000(0xa178) Read->1+8
response[1628] = 0x83480000(0xa178) Read->1+8
response[1629] = 0x54860fde(0xa180) Read->1+8
response[1630] = 0x54860fde(0xa180) Read->1+8
response[1631] = 0x54860fde(0xa180) Read->1+8
response[1632] = 0x48086b8b(0xa188) Read->1+8
response[1633] = 0x7(0x8fb8) Read->1+8
response[1634] = 0x48086b8b(0xa188) Read->1+8
response[1635] = 0x2e048(0x8fb0) Read->1+8
response[1636] = 0x48086b8b(0xa188) Read->1+8
response[1637] = 0xee894de8(0xa190) Read->1+8
response[1638] = 0xee894de8(0xa190) Read->1+8
response[1639] = 0xee894de8(0xa190) Read->1+8
response[1640] = 0xee894de8(0xa190) Read->1+8
response[1641] = 0x4820e8c1(0xa198) Read->1+8
response[1642] = 0x4820e8c1(0xa198) Read->1+8
response[1643] = 0x4820e8c1(0xa198) Read->1+8
response[1644] = 0x41c7148d(0xa1a0) Read->1+8
response[1645] = 0x41c7148d(0xa1a0) Read->1+8
response[1646] = 0x41c7148d(0xa1a0) Read->1+8
response[1647] = 0x48c031d1(0xa1a8) Read->1+8
response[1648] = 0x48c031d1(0xa1a8) Read->1+8
response[1649] = 0x48c031d1(0xa1a8) Read->1+8
response[1650] = 0x48c031d1(0xa1a8) Read->1+8
response[1651] = 0x4ab60f44(0xa1b0) Read->1+8
response[1652] = 0x12(0x8584) Read->1+1
response[1653] = 0x4ab60f44(0xa1b0) Read->1+8
response[1654] = 0x8b480652(0xa1b8) Read->1+8
response[1655] = 0xe(0x8586) Read->1+2
response[1656] = 0x8b480652(0xa1b8) Read->1+8
response[1657] = 0x1dd40(0x8588) Read->1+8
response[1658] = 0x8b480652(0xa1b8) Read->1+8
response[1659] = 0x41660fe1(0xa1c0) Read->1+8
response[1660] = 0x41660fe1(0xa1c0) Read->1+8
response[1661] = 0x41660fe1(0xa1c0) Read->1+8
response[1662] = 0xc384(0xa1c8) Read->1+8
response[1663] = 0xc384(0xa1c8) Read->1+8
response[1664] = 0x2c814(0xa1d0) Read->1+8
response[1665] = 0xf7fff000(0x359e8) Read->1+8
response[1666] = 0x2c814(0xa1d0) Read->1+8
response[1667] = 0xf2840f(0xa1d8) Read->1+8
response[1668] = 0xf2840f(0xa1d8) Read->1+8
response[1669] = 0x840f12fe(0xa1e0) Read->1+8
response[1670] = 0x840f12fe(0xa1e0) Read->1+8
response[1671] = 0xf7414e77(0xa1e8) Read->1+8
response[1672] = 0xf7414e77(0xa1e8) Read->1+8
response[1673] = 0x79840fff(0xa1f0) Read->1+8
response[1674] = 0x79840fff(0xa1f0) Read->1+8
response[1675] = 0x5fe8349(0xa170) Read->1+8
response[1676] = 0x5fe8349(0xa170) Read->1+8
response[1677] = 0x83480000(0xa178) Read->1+8
response[1678] = 0x10430348(0xa260) Read->1+8
response[1679] = 0x0(0x8fc0) Read->1+8
response[1680] = 0x10430348(0xa260) Read->1+8
response[1681] = 0xf801cd40(0x35048) Read->0+8
response[1682] = 0x10430348(0xa260) Read->1+8
response[1683] = 0xffffff0e(0xa268) Read->1+8
response[1684] = 0x83480000(0xa178) Read->1+8
response[1685] = 0x83480000(0xa178) Read->1+8
response[1686] = 0x54860fde(0xa180) Read->1+8
response[1687] = 0x54860fde(0xa180) Read->1+8
response[1688] = 0x80000000(0x9fd8) Read->1+8
response[1689] = 0x310f0400(0x9fe0) Read->1+8
response[1690] = 0x0(0x35d04) Read->1+1
response[1691] = 0x4(0x35d04) Read->0+1
response[1692] = 0x310f0400(0x9fe0) Read->1+8
response[1693] = 0x310f0400(0x9fe0) Read->1+8
response[1694] = 0x480002c9(0x9fe8) Read->1+8
response[1695] = 0x480002c9(0x9fe8) Read->1+8
response[1696] = 0x480002c9(0x9fe8) Read->1+8
response[1697] = 0x8948d009(0x9ff0) Read->1+8
response[1698] = 0x8948d009(0x9ff0) Read->1+8
response[1699] = 0xb0b2e800(0x9ff8) Read->1+8
response[1700] = 0x2f31(0x345e0) Read->0+8
response[1701] = 0xb0b2e800(0x9ff8) Read->1+8
response[1702] = 0xf8000ffe(0x37d38) Read->0+8
response[1703] = 0xfa1e0ff3(0x150b0) Read->1+8
response[1704] = 0xfa1e0ff3(0x150b0) Read->1+8
response[1705] = 0x48000002(0x150b8) Read->1+8
response[1706] = 0xf802ce88(0x35c88) Read->1+8
response[1707] = 0x48000002(0x150b8) Read->1+8
response[1708] = 0x48000002(0x150b8) Read->1+8
response[1709] = 0x8488b48(0x150c0) Read->1+8
response[1710] = 0xf7fff3c8(0x34e90) Read->1+8
response[1711] = 0x8488b48(0x150c0) Read->1+8
response[1712] = 0x11(0x83c8) Read->1+4
response[1713] = 0x8488b48(0x150c0) Read->1+8
response[1714] = 0x2f4(0x150c8) Read->1+8
response[1715] = 0x11(0x35cdc) Read->0+4
response[1716] = 0x2f4(0x150c8) Read->1+8
response[1717] = 0x4(0x83d0) Read->1+4
response[1718] = 0x2f4(0x150c8) Read->1+8
response[1719] = 0x8d440471(0x150d0) Read->1+8
response[1720] = 0x1(0x83cc) Read->1+4
response[1721] = 0x8d440471(0x150d0) Read->1+8
response[1722] = 0x8d440471(0x150d0) Read->1+8
response[1723] = 0x446975c0(0x150d8) Read->1+8
response[1724] = 0x446975c0(0x150d8) Read->1+8
response[1725] = 0x446975c0(0x150d8) Read->1+8
response[1726] = 0xc0010000(0x150e0) Read->1+8
response[1727] = 0x3(0x35ce0) Read->0+4
response[1728] = 0xc0010000(0x150e0) Read->1+8
response[1729] = 0xc0010000(0x150e0) Read->1+8
response[1730] = 0x8bf22948(0x150e8) Read->1+8
response[1731] = 0x8bf22948(0x150e8) Read->1+8
response[1732] = 0x8(0x83d4) Read->1+4
response[1733] = 0x8bf22948(0x150e8) Read->1+8
response[1734] = 0x894c8004(0x150f0) Read->1+8
response[1735] = 0x894c8004(0x150f0) Read->1+8
response[1736] = 0x87894800(0x150f8) Read->1+8
response[1737] = 0xf7fff3d8(0x35ce8) Read->0+8
response[1738] = 0x87894800(0x150f8) Read->1+8
response[1739] = 0xf7fff3f8(0x35cf0) Read->0+8
response[1740] = 0x90048d48(0x15100) Read->1+8
response[1741] = 0x90048d48(0x15100) Read->1+8
response[1742] = 0x89480000(0x15108) Read->1+8
response[1743] = 0x8(0x35ce4) Read->0+4
response[1744] = 0x89480000(0x15108) Read->1+8
response[1745] = 0xf66c300(0x15110) Read->1+8
response[1746] = 0xf7fff438(0x35cf8) Read->0+8
response[1747] = 0xf66c300(0x15110) Read->1+8
response[1748] = 0xf8000ffe(0x37d38) Read->1+8
response[1749] = 0xb0b2e800(0x9ff8) Read->1+8
response[1750] = 0x2c9e305(0xa000) Read->1+8
response[1751] = 0x2c9e305(0xa000) Read->1+8
response[1752] = 0xd1358d48(0xa008) Read->1+8
response[1753] = 0xd1358d48(0xa008) Read->1+8
response[1754] = 0xc9fa0589(0xa010) Read->1+8
response[1755] = 0xf802d9e8(0x35a10) Read->0+8
response[1756] = 0xc9fa0589(0xa010) Read->1+8
response[1757] = 0xffdfe305(0xa018) Read->1+8
response[1758] = 0xffdfe305(0xa018) Read->1+8
response[1759] = 0x2cd14(0xa020) Read->1+8
response[1760] = 0xf7fff000(0x35d38) Read->0+8
response[1761] = 0x2cd14(0xa020) Read->1+8
response[1762] = 0x480002d1(0xa028) Read->1+8
response[1763] = 0x480002d1(0xa028) Read->1+8
response[1764] = 0x8d480002(0xa030) Read->1+8
response[1765] = 0xf802e190(0x35d40) Read->0+8
response[1766] = 0x8d480002(0xa030) Read->1+8
response[1767] = 0x5894800(0xa038) Read->1+8
response[1768] = 0x5894800(0xa038) Read->1+8
response[1769] = 0xf8022684(0x35d48) Read->0+8
response[1770] = 0x112d8948(0xa040) Read->1+8
response[1771] = 0xffffeda0(0x34e58) Read->0+8
response[1772] = 0x112d8948(0xa040) Read->1+8
response[1773] = 0x1a6b4(0xa048) Read->1+8
response[1774] = 0xf800104c(0x37d38) Read->0+8
response[1775] = 0xfa1e0ff3(0x24700) Read->1+8
response[1776] = 0xfa1e0ff3(0x24700) Read->1+8
response[1777] = 0xffffedb0(0x37d30) Read->0+8
[...]
response[7326] = 0xd00148f0(0x14128) Read->1+8
response[7327] = 0x89e575d2(0x14130) Read->1+8
response[7328] = 0x89e575d2(0x14130) Read->1+8
response[7329] = 0xfc68948(0x14118) Read->1+8
response[7330] = 0xfc68948(0x14118) Read->1+8
response[7331] = 0xfc68948(0x14118) Read->1+8
response[7332] = 0xc14801c1(0x14120) Read->1+8
response[7333] = 0xc14801c1(0x14120) Read->1+8
response[7334] = 0xc14801c1(0x14120) Read->1+8
response[7335] = 0xd00148f0(0x14128) Read->1+8
response[7336] = 0xd00148f0(0x14128) Read->1+8
response[7337] = 0xd00148f0(0x14128) Read->1+8
response[7338] = 0x6c(0x2d2c7) Read->1+1
response[7339] = 0xd00148f0(0x14128) Read->1+8
response[7340] = 0x89e575d2(0x14130) Read->1+8
response[7341] = 0x89e575d2(0x14130) Read->1+8
response[7342] = 0xfc68948(0x14118) Read->1+8
response[7343] = 0xfc68948(0x14118) Read->1+8
response[7344] = 0xfc68948(0x14118) Read->1+8
response[7345] = 0xc14801c1(0x14120) Read->1+8
response[7346] = 0xc14801c1(0x14120) Read->1+8
response[7347] = 0xc14801c1(0x14120) Read->1+8
response[7348] = 0xd00148f0(0x14128) Read->1+8
response[7349] = 0xd00148f0(0x14128) Read->1+8
response[7350] = 0xd00148f0(0x14128) Read->1+8
response[7351] = 0x6f(0x2d2c8) Read->1+1
response[7352] = 0xd00148f0(0x14128) Read->1+8
response[7353] = 0x89e575d2(0x14130) Read->1+8
response[7354] = 0x89e575d2(0x14130) Read->1+8
response[7355] = 0xfc68948(0x14118) Read->1+8
response[7356] = 0xfc68948(0x14118) Read->1+8
response[7357] = 0xfc68948(0x14118) Read->1+8
response[7358] = 0xc14801c1(0x14120) Read->1+8
response[7359] = 0xc14801c1(0x14120) Read->1+8
response[7360] = 0xc14801c1(0x14120) Read->1+8
response[7361] = 0xd00148f0(0x14128) Read->1+8
response[7362] = 0xd00148f0(0x14128) Read->1+8
response[7363] = 0xd00148f0(0x14128) Read->1+8
response[7364] = 0x63(0x2d2c9) Read->1+1
response[7365] = 0xd00148f0(0x14128) Read->1+8
response[7366] = 0x89e575d2(0x14130) Read->1+8
response[7367] = 0x89e575d2(0x14130) Read->1+8
response[7368] = 0xfc68948(0x14118) Read->1+8
response[7369] = 0xfc68948(0x14118) Read->1+8
response[7370] = 0xfc68948(0x14118) Read->1+8
response[7371] = 0xc14801c1(0x14120) Read->1+8
response[7372] = 0xc14801c1(0x14120) Read->1+8
response[7373] = 0xc14801c1(0x14120) Read->1+8
response[7374] = 0xd00148f0(0x14128) Read->1+8
response[7375] = 0xd00148f0(0x14128) Read->1+8
response[7376] = 0xd00148f0(0x14128) Read->1+8
response[7377] = 0x6b(0x2d2ca) Read->1+1
response[7378] = 0xd00148f0(0x14128) Read->1+8
response[7379] = 0x89e575d2(0x14130) Read->1+8
response[7380] = 0x89e575d2(0x14130) Read->1+8
response[7381] = 0xfc68948(0x14118) Read->1+8
response[7382] = 0xfc68948(0x14118) Read->1+8
response[7383] = 0xfc68948(0x14118) Read->1+8
response[7384] = 0xc14801c1(0x14120) Read->1+8
response[7385] = 0xc14801c1(0x14120) Read->1+8
response[7386] = 0xc14801c1(0x14120) Read->1+8
response[7387] = 0xd00148f0(0x14128) Read->1+8
response[7388] = 0xd00148f0(0x14128) Read->1+8
response[7389] = 0xd00148f0(0x14128) Read->1+8
response[7390] = 0x5f(0x2d2cb) Read->1+1
response[7391] = 0xd00148f0(0x14128) Read->1+8
response[7392] = 0x89e575d2(0x14130) Read->1+8
response[7393] = 0x89e575d2(0x14130) Read->1+8
response[7394] = 0xfc68948(0x14118) Read->1+8
response[7395] = 0xfc68948(0x14118) Read->1+8
response[7396] = 0xfc68948(0x14118) Read->1+8
response[7397] = 0xc14801c1(0x14120) Read->1+8
response[7398] = 0xc14801c1(0x14120) Read->1+8
response[7399] = 0xc14801c1(0x14120) Read->1+8
response[7400] = 0xd00148f0(0x14128) Read->1+8
response[7401] = 0xd00148f0(0x14128) Read->1+8
response[7402] = 0xd00148f0(0x14128) Read->1+8
response[7403] = 0x67(0x2d2cc) Read->1+1
response[7404] = 0xd00148f0(0x14128) Read->1+8
response[7405] = 0x89e575d2(0x14130) Read->1+8
response[7406] = 0x89e575d2(0x14130) Read->1+8
response[7407] = 0xfc68948(0x14118) Read->1+8
response[7408] = 0xfc68948(0x14118) Read->1+8
response[7409] = 0xfc68948(0x14118) Read->1+8
response[7410] = 0xc14801c1(0x14120) Read->1+8
response[7411] = 0xc14801c1(0x14120) Read->1+8
response[7412] = 0xc14801c1(0x14120) Read->1+8
response[7413] = 0xd00148f0(0x14128) Read->1+8
response[7414] = 0xd00148f0(0x14128) Read->1+8
response[7415] = 0xd00148f0(0x14128) Read->1+8
response[7416] = 0x65(0x2d2cd) Read->1+1
response[7417] = 0xd00148f0(0x14128) Read->1+8
response[7418] = 0x89e575d2(0x14130) Read->1+8
response[7419] = 0x89e575d2(0x14130) Read->1+8
response[7420] = 0xfc68948(0x14118) Read->1+8
response[7421] = 0xfc68948(0x14118) Read->1+8
response[7422] = 0xfc68948(0x14118) Read->1+8
response[7423] = 0xc14801c1(0x14120) Read->1+8
response[7424] = 0xc14801c1(0x14120) Read->1+8
response[7425] = 0xc14801c1(0x14120) Read->1+8
response[7426] = 0xd00148f0(0x14128) Read->1+8
response[7427] = 0xd00148f0(0x14128) Read->1+8
response[7428] = 0xd00148f0(0x14128) Read->1+8
response[7429] = 0x74(0x2d2ce) Read->1+1
response[7430] = 0xd00148f0(0x14128) Read->1+8
response[7431] = 0x89e575d2(0x14130) Read->1+8
response[7432] = 0x89e575d2(0x14130) Read->1+8
response[7433] = 0xfc68948(0x14118) Read->1+8
response[7434] = 0xfc68948(0x14118) Read->1+8
response[7435] = 0xfc68948(0x14118) Read->1+8
response[7436] = 0xc14801c1(0x14120) Read->1+8
response[7437] = 0xc14801c1(0x14120) Read->1+8
response[7438] = 0xc14801c1(0x14120) Read->1+8
response[7439] = 0xd00148f0(0x14128) Read->1+8
response[7440] = 0xd00148f0(0x14128) Read->1+8
response[7441] = 0xd00148f0(0x14128) Read->1+8
response[7442] = 0x72(0x2d2cf) Read->1+1
response[7443] = 0xd00148f0(0x14128) Read->1+8
response[7444] = 0x89e575d2(0x14130) Read->1+8
response[7445] = 0x89e575d2(0x14130) Read->1+8
response[7446] = 0xfc68948(0x14118) Read->1+8
response[7447] = 0xfc68948(0x14118) Read->1+8
response[7448] = 0xfc68948(0x14118) Read->1+8
response[7449] = 0xc14801c1(0x14120) Read->1+8
response[7450] = 0xc14801c1(0x14120) Read->1+8
response[7451] = 0xc14801c1(0x14120) Read->1+8
response[7452] = 0xd00148f0(0x14128) Read->1+8
response[7453] = 0xd00148f0(0x14128) Read->1+8
response[7454] = 0xd00148f0(0x14128) Read->1+8
response[7455] = 0x65(0x2d2d0) Read->1+1
response[7456] = 0xd00148f0(0x14128) Read->1+8
response[7457] = 0x89e575d2(0x14130) Read->1+8
response[7458] = 0x89e575d2(0x14130) Read->1+8
response[7459] = 0xfc68948(0x14118) Read->1+8
response[7460] = 0xfc68948(0x14118) Read->1+8
response[7461] = 0xfc68948(0x14118) Read->1+8
response[7462] = 0xc14801c1(0x14120) Read->1+8
response[7463] = 0xc14801c1(0x14120) Read->1+8
response[7464] = 0xc14801c1(0x14120) Read->1+8
response[7465] = 0xd00148f0(0x14128) Read->1+8
response[7466] = 0xd00148f0(0x14128) Read->1+8
response[7467] = 0xd00148f0(0x14128) Read->1+8
response[7468] = 0x73(0x2d2d1) Read->1+1
response[7469] = 0xd00148f0(0x14128) Read->1+8
response[7470] = 0x89e575d2(0x14130) Read->1+8
response[7471] = 0x89e575d2(0x14130) Read->1+8
response[7472] = 0xfc68948(0x14118) Read->1+8
response[7473] = 0xfc68948(0x14118) Read->1+8
response[7474] = 0xfc68948(0x14118) Read->1+8
response[7475] = 0xc14801c1(0x14120) Read->1+8
response[7476] = 0xc14801c1(0x14120) Read->1+8
response[7477] = 0xc14801c1(0x14120) Read->1+8
response[7478] = 0xd00148f0(0x14128) Read->1+8
response[7479] = 0xd00148f0(0x14128) Read->1+8
response[7480] = 0xd00148f0(0x14128) Read->1+8
response[7481] = 0x0(0x2d2d2) Read->1+1
response[7482] = 0xd00148f0(0x14128) Read->1+8
response[7483] = 0x89e575d2(0x14130) Read->1+8
response[7484] = 0x89e575d2(0x14130) Read->1+8
response[7485] = 0x89e575d2(0x14130) Read->1+8
response[7486] = 0x89e575d2(0x14130) Read->1+8
response[7487] = 0x22893(0x14138) Read->1+8
response[7488] = 0x4(0x359d0) Read->1+8
response[7489] = 0x5(0x359d0) Read->0+8
response[7490] = 0x22893(0x14138) Read->1+8
response[7491] = 0xf66ffff(0x14140) Read->1+8
response[7492] = 0xf66ffff(0x14140) Read->1+8
response[7493] = 0xf66ffff(0x14140) Read->1+8
response[7494] = 0x8247c(0x14148) Read->1+8
response[7495] = 0xffffeb40(0x379b8) Read->1+8
response[7496] = 0x8247c(0x14148) Read->1+8
response[7497] = 0x44290f40(0x14150) Read->1+8
response[7498] = 0xffffffff(0x379f0) Read->0+8
response[7499] = 0x44290f40(0x14150) Read->1+8
response[7500] = 0x0(0x37a08) Read->0+8
response[7501] = 0x0(0x37a00) Read->0+8
response[7502] = 0x44290f40(0x14150) Read->1+8
response[7503] = 0xd02484f6(0x14158) Read->1+8
response[7504] = 0x0(0x37a80) Read->1+1
response[7505] = 0xd4c850f(0x14160) Read->1+8
response[7506] = 0xd4c850f(0x14160) Read->1+8
response[7507] = 0x49182444(0x14168) Read->1+8
response[7508] = 0xf802ead8(0x379c8) Read->1+8
response[7509] = 0x49182444(0x14168) Read->1+8
response[7510] = 0xffffeb20(0x37b10) Read->1+8
response[7511] = 0x49182444(0x14168) Read->1+8
response[7512] = 0xd824bc83(0x14170) Read->1+8
response[7513] = 0x0(0x37a88) Read->1+8
response[7514] = 0xf088b4c(0x14178) Read->1+8
response[7515] = 0xf802ea00(0x36ad8) Read->1+8
response[7516] = 0xf088b4c(0x14178) Read->1+8
response[7517] = 0xc9854d00(0x14180) Read->1+8
response[7518] = 0xc9854d00(0x14180) Read->1+8
response[7519] = 0xc9854d00(0x14180) Read->1+8
response[7520] = 0xc7480000(0x14188) Read->1+8
response[7521] = 0xc7480000(0x14188) Read->1+8
response[7522] = 0x48000000(0x14190) Read->1+8
response[7523] = 0x0(0x379d0) Read->0+8
response[7524] = 0x48000000(0x14190) Read->1+8
response[7525] = 0x48000000(0x14190) Read->1+8
response[7526] = 0x4c202444(0x14198) Read->1+8
response[7527] = 0x0(0x379d0) Read->1+8
response[7528] = 0x4c202444(0x14198) Read->1+8
response[7529] = 0x24748d4c(0x141a0) Read->1+8
response[7530] = 0x24748d4c(0x141a0) Read->1+8
response[7531] = 0xff3a74c9(0x141c0) Read->1+8
response[7532] = 0xf802e740(0x379c0) Read->1+8
response[7533] = 0xf802e740(0x379a8) Read->0+8
response[7534] = 0xff3a74c9(0x141c0) Read->1+8
response[7535] = 0x4d40247c(0x141c8) Read->1+8
response[7536] = 0x0(0x379e8) Read->1+4
response[7537] = 0x4d40247c(0x141c8) Read->1+8
response[7538] = 0x4d40247c(0x141c8) Read->1+8
response[7539] = 0xde8948f2(0x141d0) Read->1+8
response[7540] = 0xde8948f2(0x141d0) Read->1+8
response[7541] = 0xde8948f2(0x141d0) Read->1+8
response[7542] = 0x0(0x379a0) Read->0+8
response[7543] = 0xde8948f2(0x141d0) Read->1+8
response[7544] = 0xe8(0x141d8) Read->1+8
response[7545] = 0x0(0x37a88) Read->1+8
response[7546] = 0x0(0x37998) Read->0+8
response[7547] = 0xe8(0x141d8) Read->1+8
response[7548] = 0x57000000(0x141e0) Read->1+8
response[7549] = 0x0(0x37a80) Read->1+4
response[7550] = 0x57000000(0x141e0) Read->1+8
response[7551] = 0x0(0x37990) Read->0+8
response[7552] = 0x57000000(0x141e0) Read->1+8
response[7553] = 0x57000000(0x141e0) Read->1+8
response[7554] = 0x50282474(0x141e8) Read->1+8
response[7555] = 0xffffeb40(0x379b8) Read->1+8
response[7556] = 0xffffeb40(0x37988) Read->0+8
response[7557] = 0x50282474(0x141e8) Read->1+8
response[7558] = 0x0(0x37980) Read->0+8
response[7559] = 0x50282474(0x141e8) Read->1+8
response[7560] = 0xc48348ff(0x141f0) Read->1+8
response[7561] = 0xf800b1f1(0x37978) Read->0+8
response[7562] = 0x56415741(0x134c0) Read->1+8
response[7563] = 0xffffea00(0x37970) Read->0+8
response[7564] = 0x56415741(0x134c0) Read->1+8
response[7565] = 0xffffe9f0(0x37968) Read->0+8
response[7566] = 0x56415741(0x134c0) Read->1+8
response[7567] = 0x56415741(0x134c0) Read->1+8
response[7568] = 0x55544155(0x134c8) Read->1+8
response[7569] = 0xf80242bf(0x37960) Read->0+8
response[7570] = 0x55544155(0x134c8) Read->1+8
response[7571] = 0xffffeb10(0x37958) Read->0+8
response[7572] = 0x55544155(0x134c8) Read->1+8
response[7573] = 0xf802ead8(0x37950) Read->0+8
response[7574] = 0x55544155(0x134c8) Read->1+8
response[7575] = 0x68308f53(0x37948) Read->0+8
response[7576] = 0x55544155(0x134c8) Read->1+8
response[7577] = 0x98(0x134d0) Read->1+8
response[7578] = 0x98(0x134d0) Read->1+8
response[7579] = 0x1(0x36a08) Read->1+4
response[7580] = 0x247c8948(0x134d8) Read->1+8
response[7581] = 0xf80242bf(0x378d0) Read->0+8
response[7582] = 0x247c8948(0x134d8) Read->1+8
response[7583] = 0xd024(0x134e0) Read->1+8
response[7584] = 0x0(0x37980) Read->1+8
response[7585] = 0xd024(0x134e0) Read->1+8
response[7586] = 0x8b4c5824(0x134e8) Read->1+8
response[7587] = 0xffffe9f0(0x37908) Read->0+8
response[7588] = 0x8b4c5824(0x134e8) Read->1+8
response[7589] = 0x89480000(0x134f0) Read->1+8
response[7590] = 0x0(0x37998) Read->1+8
response[7591] = 0x89480000(0x134f0) Read->1+8
response[7592] = 0xffffeb20(0x37900) Read->0+8
response[7593] = 0x89480000(0x134f0) Read->1+8
response[7594] = 0x48244489(0x134f8) Read->1+8
response[7595] = 0xffffea00(0x378f8) Read->0+8
response[7596] = 0x48244489(0x134f8) Read->1+8
response[7597] = 0x4ce3894d(0x13500) Read->1+8
response[7598] = 0x4ce3894d(0x13500) Read->1+8
response[7599] = 0x68308f53(0x378d8) Read->0+8
response[7600] = 0x8bfc894d(0x13508) Read->1+8
response[7601] = 0x8bfc894d(0x13508) Read->1+8
response[7602] = 0x8b4d0000(0x13510) Read->1+8
response[7603] = 0x0(0x379a0) Read->1+4
response[7604] = 0x8b4d0000(0x13510) Read->1+8
response[7605] = 0xf802e768(0x36a00) Read->1+8
response[7606] = 0x8b4d0000(0x13510) Read->1+8
response[7607] = 0xe0833024(0x13518) Read->1+8
response[7608] = 0x1a0c23d(0x378e0) Read->0+8
response[7609] = 0xe0833024(0x13518) Read->1+8
response[7610] = 0xe0833024(0x13518) Read->1+8
response[7611] = 0xc7894164(0x13520) Read->1+8
response[7612] = 0x0(0x37914) Read->0+4
response[7613] = 0xc7894164(0x13520) Read->1+8
response[7614] = 0xc7894164(0x13520) Read->1+8
response[7615] = 0x801f0f00(0x13528) Read->1+8
response[7616] = 0xe1860feb(0x135b8) Read->1+8
response[7617] = 0xed448b(0x135c0) Read->1+8
response[7618] = 0xf802e740(0x36768) Read->1+8
response[7619] = 0xed448b(0x135c0) Read->1+8
response[7620] = 0xf802e740(0x36768) Read->1+8
response[7621] = 0x74e3394c(0x135c8) Read->1+8
response[7622] = 0x74e3394c(0x135c8) Read->1+8
response[7623] = 0x74e3394c(0x135c8) Read->1+8
response[7624] = 0x83f60974(0x135d0) Read->1+8
response[7625] = 0xf6d77403(0x135d8) Read->1+8
response[7626] = 0xce752000(0x135e0) Read->1+8
response[7627] = 0x0(0x36a5d) Read->1+1
response[7628] = 0xce752000(0x135e0) Read->1+8
response[7629] = 0xce752000(0x135e0) Read->1+8
response[7630] = 0xf080002(0x135e8) Read->1+8
response[7631] = 0x0(0x34620) Read->1+1
response[7632] = 0xf080002(0x135e8) Read->1+8
response[7633] = 0x538b48ff(0x135f0) Read->1+8
response[7634] = 0x2f4b38b(0x13530) Read->1+8
response[7635] = 0x0(0x36a34) Read->1+4
response[7636] = 0x2f4b38b(0x13530) Read->1+8
response[7637] = 0x84c77874(0x13538) Read->1+8
response[7638] = 0x83480000(0x135b0) Read->1+8
response[7639] = 0x83480000(0x135b0) Read->1+8
response[7640] = 0xe1860feb(0x135b8) Read->1+8
response[7641] = 0xe1860feb(0x135b8) Read->1+8
response[7642] = 0x8148c031(0x138a0) Read->1+8
response[7643] = 0x8148c031(0x138a0) Read->1+8
response[7644] = 0x415d5b00(0x138a8) Read->1+8
response[7645] = 0x415d5b00(0x138a8) Read->1+8
response[7646] = 0x68308f53(0x37948) Read->1+8
response[7647] = 0x415d5b00(0x138a8) Read->1+8
response[7648] = 0xf802ead8(0x37950) Read->1+8
response[7649] = 0x415d5b00(0x138a8) Read->1+8
response[7650] = 0xffffeb10(0x37958) Read->1+8
response[7651] = 0x415d5b00(0x138a8) Read->1+8
response[7652] = 0xf80242bf(0x37960) Read->1+8
response[7653] = 0x415d5b00(0x138a8) Read->1+8
response[7654] = 0xc35f415e(0x138b0) Read->1+8
response[7655] = 0xffffe9f0(0x37968) Read->1+8
response[7656] = 0xc35f415e(0x138b0) Read->1+8
response[7657] = 0xffffea00(0x37970) Read->1+8
response[7658] = 0xc35f415e(0x138b0) Read->1+8
response[7659] = 0xf800b1f1(0x37978) Read->1+8
response[7660] = 0xc48348ff(0x141f0) Read->1+8
response[7661] = 0xc48348ff(0x141f0) Read->1+8
response[7662] = 0xc48348ff(0x141f0) Read->1+8
response[7663] = 0xc8b49b7(0x141f8) Read->1+8
response[7664] = 0x84d8b4c(0x141b0) Read->1+8
response[7665] = 0x0(0x36ae0) Read->1+8
response[7666] = 0x84d8b4c(0x141b0) Read->1+8
response[7667] = 0x240c8b49(0x141b8) Read->1+8
response[7668] = 0xffffeb20(0x37b10) Read->1+8
response[7669] = 0x240c8b49(0x141b8) Read->1+8
response[7670] = 0x240c8b49(0x141b8) Read->1+8
response[7671] = 0xff3a74c9(0x141c0) Read->1+8
response[7672] = 0xff3a74c9(0x141c0) Read->1+8
response[7673] = 0xc8b49b7(0x141f8) Read->1+8
response[7674] = 0xf005024(0x14200) Read->1+8
response[7675] = 0x0(0x37a00) Read->1+8
response[7676] = 0xf005024(0x14200) Read->1+8
response[7677] = 0xc9854800(0x14208) Read->1+8
response[7678] = 0x74c98548(0x14340) Read->1+8
response[7679] = 0x74c98548(0x14340) Read->1+8
response[7680] = 0x74c98548(0x14340) Read->1+8
response[7681] = 0x4e8c004(0x14348) Read->1+8
response[7682] = 0x20(0x37b24) Read->1+1
response[7683] = 0x4e8c004(0x14348) Read->1+8
response[7684] = 0x4e8c004(0x14348) Read->1+8
response[7685] = 0x4e8c004(0x14348) Read->1+8
response[7686] = 0x82(0x14350) Read->1+8
response[7687] = 0xce8ae8ef(0x143d0) Read->1+8
response[7688] = 0x2404(0x143d8) Read->1+8
response[7689] = 0x0(0x37b10) Read->0+8
response[7690] = 0x2404(0x143d8) Read->1+8
response[7691] = 0xfe76e9f6(0x143e0) Read->1+8
response[7692] = 0xfe76e9f6(0x143e0) Read->1+8
response[7693] = 0x24048949(0x14258) Read->1+8
response[7694] = 0x4c000000(0x14260) Read->1+8
response[7695] = 0x4c000000(0x14260) Read->1+8
response[7696] = 0x4c000000(0x14260) Read->1+8
response[7697] = 0xffffeb40(0x37a48) Read->1+8
response[7698] = 0x4c000000(0x14260) Read->1+8
response[7699] = 0xffffec80(0x37a50) Read->1+8
response[7700] = 0x5d415c41(0x14268) Read->1+8
response[7701] = 0xffffeb10(0x37a58) Read->1+8
response[7702] = 0x5d415c41(0x14268) Read->1+8
response[7703] = 0x0(0x37a60) Read->1+8
response[7704] = 0x5d415c41(0x14268) Read->1+8
response[7705] = 0x0(0x37a68) Read->1+8
response[7706] = 0x5d415c41(0x14268) Read->1+8
response[7707] = 0xf802e190(0x37a70) Read->1+8
response[7708] = 0x801f0fc3(0x14270) Read->1+8
response[7709] = 0xf8002c8e(0x37a78) Read->1+8
response[7710] = 0x9b7215ff(0xbc88) Read->1+8
response[7711] = 0xfffe9095(0xbc90) Read->1+8
response[7712] = 0x0(0x37b10) Read->1+8
response[7713] = 0xfffe9095(0xbc90) Read->1+8
response[7714] = 0x0(0x37a80) Read->1+8
response[7715] = 0xfffe9095(0xbc90) Read->1+8
response[7716] = 0x0(0x37a88) Read->1+8
response[7717] = 0xfffe9095(0xbc90) Read->1+8
response[7718] = 0x840fd285(0xbc98) Read->1+8
response[7719] = 0x840fd285(0xbc98) Read->1+8
response[7720] = 0xc0310000(0xcb78) Read->1+8
response[7721] = 0xc0310000(0xcb78) Read->1+8
response[7722] = 0x358b48ff(0xcb80) Read->1+8
response[7723] = 0x48084203(0xbcb8) Read->1+8
response[7724] = 0x8d480002(0xbcc0) Read->1+8
response[7725] = 0x0(0x347e0) Read->0+8
response[7726] = 0x8d480002(0xbcc0) Read->1+8
response[7727] = 0x9512e800(0xbcc8) Read->1+8
response[7728] = 0x9512e800(0xbcc8) Read->1+8
response[7729] = 0xf8002cce(0x37a88) Read->0+8
response[7730] = 0xfa1e0ff3(0x251e0) Read->1+8
response[7731] = 0xfa1e0ff3(0x251e0) Read->1+8
response[7732] = 0xffffeb10(0x37a80) Read->0+8
response[7733] = 0xfa1e0ff3(0x251e0) Read->1+8
response[7734] = 0xffffec80(0x37a78) Read->0+8
response[7735] = 0xfa1e0ff3(0x251e0) Read->1+8
response[7736] = 0xf8025d68(0x37a70) Read->0+8
response[7737] = 0xd0ec8148(0x251e8) Read->1+8
response[7738] = 0xd0ec8148(0x251e8) Read->1+8
response[7739] = 0x5c21d8b(0x251f0) Read->1+8
response[7740] = 0xf802e740(0x347b8) Read->1+8
response[7741] = 0x5c21d8b(0x251f0) Read->1+8
response[7742] = 0xc1840fdb(0x251f8) Read->1+8
response[7743] = 0xc1840fdb(0x251f8) Read->1+8
response[7744] = 0xc1840fdb(0x251f8) Read->1+8
response[7745] = 0xb89bb70f(0x25200) Read->1+8
response[7746] = 0x0(0x369f8) Read->1+2
response[7747] = 0xb89bb70f(0x25200) Read->1+8
response[7748] = 0x2a8b38b(0x25208) Read->1+8
response[7749] = 0xff600000(0x369e8) Read->1+8
response[7750] = 0x2a8b38b(0x25208) Read->1+8
response[7751] = 0xa9840fdb(0x25210) Read->1+8
response[7752] = 0xa9840fdb(0x25210) Read->1+8
response[7753] = 0x247c8d48(0x252c0) Read->1+8
response[7754] = 0x247c8d48(0x252c0) Read->1+8
response[7755] = 0x8d480000(0x252c8) Read->1+8
response[7756] = 0xf801c2ca(0x37898) Read->0+8
response[7757] = 0xfa1e0ff3(0x27260) Read->1+8
response[7758] = 0xfa1e0ff3(0x27260) Read->1+8
response[7759] = 0x48050f00(0x27268) Read->1+8
response[7760] = 0x48050f00(0x27268) Read->1+8
