Global frequency set at 1000000000000 ticks per second
build/X86/mem/dram_interface.cc:690: warn: DRAM device capacity (8192 Mbytes) does not match the address range assigned (4096 Mbytes)
simpleCache
DEBUG COH Protocol Name in XML header: MSI
FSM path: /home/gem5/gem5_new/ext/CMSpec/CMSpec/Protocols_FSM/
simpleCache
simpleCache
simpleCache
build/X86/mem/coherent_xbar.cc:140: warn: CoherentXBar board.cache_hierarchy.membus has no snooping ports attached!
0: board.remote_gdb: listening for remote gdb on port 7000
gem5 Simulator System.  https://www.gem5.org
gem5 is copyrighted software; use the --copyright option for details.

gem5 version 22.1.0.0
gem5 compiled Jun 16 2024 22:09:04
gem5 started Jun 27 2024 04:04:08
gem5 executing on gem5-VirtualBox, pid 25015
command line: ./build/X86/gem5.debug /home/gem5/gem5_new/configs/mytest2/hello.py -f /home/gem5/gem5_new/ext/CMSpec/CMSpec/test/myTests/tc1_4.xml -c 4 -b BARNS -m Octopus

warn: The simulate package is still in a beta state. The gem5 project does not guarantee the APIs within this package will remain consistent across upcoming releases.
warn: No dot file generated. Please install pydot to generate the dot file and pdf.
build/X86/sim/simulate.cc:192: info: Entering event queue @ 0.  Starting simulation...
build/X86/arch/x86/cpuid.cc:180: warn: x86 cpuid family 0x0000: unimplemented function 13
build/X86/sim/syscall_emul.cc:74: warn: ignoring syscall set_robust_list(...)
build/X86/sim/syscall_emul.cc:85: warn: ignoring syscall rt_sigaction(...)
      (further warnings will be suppressed)
build/X86/sim/syscall_emul.cc:85: warn: ignoring syscall rt_sigprocmask(...)
      (further warnings will be suppressed)
build/X86/sim/mem_state.cc:443: info: Increasing stack size by one page.
build/X86/sim/syscall_emul.hh:1016: warn: readlink() called on '/proc/self/exe' may yield unexpected results in various settings.
      Returning '/home/gem5/splash/splash2/codes/apps/barnes/BARNES'
build/X86/sim/syscall_emul.cc:74: warn: ignoring syscall mprotect(...)

		Hack code: Plummer model

     nbody     dtime       eps       tol     dtout     tstop    fcells     NPROC
     16384   0.02500    0.0500      1.00     0.250     0.075      2.00         4

COMPUTESTART  = 1000000000017666
build/X86/sim/syscall_emul.cc:74: warn: ignoring syscall mprotect(...)
build/X86/sim/power_state.cc:105: warn: PowerState: Already in the requested power state, request ignored
build/X86/sim/syscall_emul.cc:74: warn: ignoring syscall mprotect(...)
build/X86/sim/syscall_emul.cc:74: warn: ignoring syscall set_robust_list(...)
build/X86/sim/syscall_emul.cc:74: warn: ignoring syscall mprotect(...)
build/X86/sim/syscall_emul.cc:74: warn: ignoring syscall set_robust_list(...)
build/X86/sim/syscall_emul.cc:74: warn: ignoring syscall set_robust_list(...)
build/X86/sim/syscall_emul.cc:74: warn: ignoring syscall madvise(...)
build/X86/sim/syscall_emul.cc:74: warn: ignoring syscall madvise(...)
build/X86/sim/syscall_emul.cc:74: warn: ignoring syscall madvise(...)
COMPUTEEND    = 1000000000442828
COMPUTETIME   =       425162
TRACKTIME     =       207772
PARTITIONTIME =         1571	 0.01
TREEBUILDTIME =        14540	 0.07
FORCECALCTIME =       186223	 0.90
RESTTIME      =         5438	 0.03
	Command being timed: "./build/X86/gem5.debug /home/gem5/gem5_new/configs/mytest2/hello.py -f /home/gem5/gem5_new/ext/CMSpec/CMSpec/test/myTests/tc1_4.xml -c 4 -b BARNS -m Octopus"
	User time (seconds): 105856.98
	System time (seconds): 3.57
	Percent of CPU this job got: 99%
	Elapsed (wall clock) time (h:mm:ss or m:ss): 29:24:26
	Average shared text size (kbytes): 0
	Average unshared data size (kbytes): 0
	Average stack size (kbytes): 0
	Average total size (kbytes): 0
	Maximum resident set size (kbytes): 4527916
	Average resident set size (kbytes): 0
	Major (requiring I/O) page faults: 0
	Minor (reclaiming a frame) page faults: 1119377
	Voluntary context switches: 27
	Involuntary context switches: 732709
	Swaps: 0
	File system inputs: 512
	File system outputs: 1296
	Socket messages sent: 0
	Socket messages received: 0
	Signals delivered: 0
	Page size (bytes): 4096
	Exit status: 0
Global frequency set at 1000000000000 ticks per second
build/X86/mem/dram_interface.cc:690: warn: DRAM device capacity (8192 Mbytes) does not match the address range assigned (4096 Mbytes)
build/X86/base/statistics.hh:280: warn: One of the stats is a legacy stat. Legacy stat is a stat that does not belong to any statistics::Group. Legacy stat is deprecated.
0: board.remote_gdb: listening for remote gdb on port 7000
gem5 Simulator System.  https://www.gem5.org
gem5 is copyrighted software; use the --copyright option for details.

gem5 version 22.1.0.0
gem5 compiled Jun 16 2024 22:09:04
gem5 started Jun 28 2024 09:28:35
gem5 executing on gem5-VirtualBox, pid 39209
command line: ./build/X86/gem5.debug /home/gem5/gem5_new/configs/mytest2/hello.py -c 4 -b BARNS -m Ruby

warn: The simulate package is still in a beta state. The gem5 project does not guarantee the APIs within this package will remain consistent across upcoming releases.
warn: No dot file generated. Please install pydot to generate the dot file and pdf.
build/X86/sim/simulate.cc:192: info: Entering event queue @ 0.  Starting simulation...
build/X86/mem/ruby/system/Sequencer.cc:613: warn: Replacement policy updates recently became the responsibility of SLICC state machines. Make sure to setMRU() near callbacks in .sm files!
build/X86/arch/x86/cpuid.cc:180: warn: x86 cpuid family 0x0000: unimplemented function 13
build/X86/sim/syscall_emul.cc:74: warn: ignoring syscall set_robust_list(...)
build/X86/sim/syscall_emul.cc:85: warn: ignoring syscall rt_sigaction(...)
      (further warnings will be suppressed)
build/X86/sim/syscall_emul.cc:85: warn: ignoring syscall rt_sigprocmask(...)
      (further warnings will be suppressed)
build/X86/sim/mem_state.cc:443: info: Increasing stack size by one page.
build/X86/sim/syscall_emul.hh:1016: warn: readlink() called on '/proc/self/exe' may yield unexpected results in various settings.
      Returning '/home/gem5/splash/splash2/codes/apps/barnes/BARNES'
build/X86/sim/syscall_emul.cc:74: warn: ignoring syscall mprotect(...)

		Hack code: Plummer model

     nbody     dtime       eps       tol     dtout     tstop    fcells     NPROC
     16384   0.02500    0.0500      1.00     0.250     0.075      2.00         4

COMPUTESTART  = 1000000000009793
build/X86/sim/syscall_emul.cc:74: warn: ignoring syscall mprotect(...)
build/X86/sim/power_state.cc:105: warn: PowerState: Already in the requested power state, request ignored
build/X86/sim/syscall_emul.cc:74: warn: ignoring syscall mprotect(...)
build/X86/sim/syscall_emul.cc:74: warn: ignoring syscall set_robust_list(...)
build/X86/sim/syscall_emul.cc:74: warn: ignoring syscall mprotect(...)
build/X86/sim/syscall_emul.cc:74: warn: ignoring syscall set_robust_list(...)
build/X86/sim/syscall_emul.cc:74: warn: ignoring syscall set_robust_list(...)
build/X86/sim/syscall_emul.cc:74: warn: ignoring syscall madvise(...)
build/X86/sim/syscall_emul.cc:74: warn: ignoring syscall madvise(...)
build/X86/sim/syscall_emul.cc:74: warn: ignoring syscall madvise(...)
COMPUTEEND    = 1000000000309309
COMPUTETIME   =       299516
TRACKTIME     =       146269
PARTITIONTIME =          895	 0.01
TREEBUILDTIME =         8425	 0.06
FORCECALCTIME =       134449	 0.92
RESTTIME      =         2500	 0.02
	Command being timed: "./build/X86/gem5.debug /home/gem5/gem5_new/configs/mytest2/hello.py -c 4 -b BARNS -m Ruby"
	User time (seconds): 114719.13
	System time (seconds): 0.42
	Percent of CPU this job got: 99%
	Elapsed (wall clock) time (h:mm:ss or m:ss): 31:52:05
	Average shared text size (kbytes): 0
	Average unshared data size (kbytes): 0
	Average stack size (kbytes): 0
	Average total size (kbytes): 0
	Maximum resident set size (kbytes): 719824
	Average resident set size (kbytes): 0
	Major (requiring I/O) page faults: 0
	Minor (reclaiming a frame) page faults: 168806
	Voluntary context switches: 31
	Involuntary context switches: 697601
	Swaps: 0
	File system inputs: 808
	File system outputs: 2816
	Socket messages sent: 0
	Socket messages received: 0
	Signals delivered: 0
	Page size (bytes): 4096
	Exit status: 0
