Global frequency set at 1000000000000 ticks per second
build/X86/mem/dram_interface.cc:690: warn: DRAM device capacity (8192 Mbytes) does not match the address range assigned (4096 Mbytes)
simpleCache
DEBUG COH Protocol Name in XML header: MSI
FSM path: /home/gem5/gem5_new/ext/CMSpec/CMSpec/Protocols_FSM/
simpleCache
simpleCache
simpleCache
build/X86/mem/coherent_xbar.cc:140: warn: CoherentXBar board.cache_hierarchy.membus has no snooping ports attached!
0: board.remote_gdb: listening for remote gdb on port 7000
gem5 Simulator System.  https://www.gem5.org
gem5 is copyrighted software; use the --copyright option for details.

gem5 version 22.1.0.0
gem5 compiled Jun 16 2024 22:09:04
gem5 started Jun 25 2024 19:29:35
gem5 executing on gem5-VirtualBox, pid 17385
command line: ./build/X86/gem5.debug /home/gem5/gem5_new/configs/mytest2/hello.py -f /home/gem5/gem5_new/ext/CMSpec/CMSpec/test/myTests/tc1_4.xml -c 4 -b RADIX -m Octopus

warn: The simulate package is still in a beta state. The gem5 project does not guarantee the APIs within this package will remain consistent across upcoming releases.
warn: No dot file generated. Please install pydot to generate the dot file and pdf.
build/X86/sim/simulate.cc:192: info: Entering event queue @ 0.  Starting simulation...
build/X86/arch/x86/cpuid.cc:180: warn: x86 cpuid family 0x0000: unimplemented function 13
build/X86/sim/syscall_emul.cc:74: warn: ignoring syscall set_robust_list(...)
build/X86/sim/syscall_emul.cc:85: warn: ignoring syscall rt_sigaction(...)
      (further warnings will be suppressed)
build/X86/sim/syscall_emul.cc:85: warn: ignoring syscall rt_sigprocmask(...)
      (further warnings will be suppressed)
build/X86/sim/mem_state.cc:443: info: Increasing stack size by one page.
build/X86/sim/syscall_emul.hh:1016: warn: readlink() called on '/proc/self/exe' may yield unexpected results in various settings.
      Returning '/home/gem5/splash/splash2/codes/kernels/radix/RADIX'
build/X86/sim/syscall_emul.cc:74: warn: ignoring syscall mprotect(...)

Integer Radix Sort
     262144 Keys
     4 Processors
     Radix = 1024
     Max key = 524288

build/X86/sim/syscall_emul.cc:74: warn: ignoring syscall mprotect(...)
build/X86/sim/power_state.cc:105: warn: PowerState: Already in the requested power state, request ignored
build/X86/sim/syscall_emul.cc:74: warn: ignoring syscall set_robust_list(...)
build/X86/sim/syscall_emul.cc:74: warn: ignoring syscall mprotect(...)
build/X86/sim/syscall_emul.cc:74: warn: ignoring syscall mprotect(...)
build/X86/sim/syscall_emul.cc:74: warn: ignoring syscall mprotect(...)
build/X86/sim/syscall_emul.cc:74: warn: ignoring syscall set_robust_list(...)
build/X86/sim/syscall_emul.cc:74: warn: ignoring syscall mprotect(...)
build/X86/sim/syscall_emul.cc:74: warn: ignoring syscall set_robust_list(...)
build/X86/sim/syscall_emul.cc:74: warn: ignoring syscall mprotect(...)
build/X86/sim/process.cc:333: warn: Process::allocateMem: addr 0x7ffff7385000 already mapped
build/X86/sim/process.cc:333: warn: Process::allocateMem: addr 0x7ffff7548000 already mapped
build/X86/sim/process.cc:333: warn: Process::allocateMem: addr 0x7ffff73ac000 already mapped
build/X86/sim/process.cc:333: warn: Process::allocateMem: addr 0x7ffff74e5000 already mapped
build/X86/sim/syscall_emul.cc:74: warn: ignoring syscall madvise(...)
build/X86/sim/syscall_emul.cc:74: warn: ignoring syscall madvise(...)
build/X86/sim/syscall_emul.cc:74: warn: ignoring syscall madvise(...)

                 PROCESS STATISTICS
               Total            Rank            Sort
 Proc          Time             Time            Time
    0          12501            2857            9206

                 TIMING INFORMATION
Start time                        : 1000000000000100
Initialization finish time        : 1000000000008335
Overall finish time               : 1000000000020836
Total time with initialization    :            20736
Total time without initialization :            12501

	Command being timed: "./build/X86/gem5.debug /home/gem5/gem5_new/configs/mytest2/hello.py -f /home/gem5/gem5_new/ext/CMSpec/CMSpec/test/myTests/tc1_4.xml -c 4 -b RADIX -m Octopus"
	User time (seconds): 2024.88
	System time (seconds): 0.09
	Percent of CPU this job got: 99%
	Elapsed (wall clock) time (h:mm:ss or m:ss): 33:45.36
	Average shared text size (kbytes): 0
	Average unshared data size (kbytes): 0
	Average stack size (kbytes): 0
	Average total size (kbytes): 0
	Maximum resident set size (kbytes): 212308
	Average resident set size (kbytes): 0
	Major (requiring I/O) page faults: 0
	Minor (reclaiming a frame) page faults: 40595
	Voluntary context switches: 41
	Involuntary context switches: 16748
	Swaps: 0
	File system inputs: 0
	File system outputs: 1360
	Socket messages sent: 0
	Socket messages received: 0
	Signals delivered: 0
	Page size (bytes): 4096
	Exit status: 0
Global frequency set at 1000000000000 ticks per second
build/X86/mem/dram_interface.cc:690: warn: DRAM device capacity (8192 Mbytes) does not match the address range assigned (4096 Mbytes)
simpleCache
DEBUG COH Protocol Name in XML header: MSI
FSM path: /home/gem5/gem5_new/ext/CMSpec/CMSpec/Protocols_FSM/
simpleCache
simpleCache
simpleCache
build/X86/mem/coherent_xbar.cc:140: warn: CoherentXBar board.cache_hierarchy.membus has no snooping ports attached!
0: board.remote_gdb: listening for remote gdb on port 7000
gem5 Simulator System.  https://www.gem5.org
gem5 is copyrighted software; use the --copyright option for details.

gem5 version 22.1.0.0
gem5 compiled Jun 16 2024 22:09:04
gem5 started Jun 25 2024 20:03:20
gem5 executing on gem5-VirtualBox, pid 17442
command line: ./build/X86/gem5.debug /home/gem5/gem5_new/configs/mytest2/hello.py -f /home/gem5/gem5_new/ext/CMSpec/CMSpec/test/myTests/tc1_4.xml -c 4 -b FFT -m Octopus

warn: The simulate package is still in a beta state. The gem5 project does not guarantee the APIs within this package will remain consistent across upcoming releases.
warn: No dot file generated. Please install pydot to generate the dot file and pdf.
build/X86/sim/simulate.cc:192: info: Entering event queue @ 0.  Starting simulation...
build/X86/arch/x86/cpuid.cc:180: warn: x86 cpuid family 0x0000: unimplemented function 13
build/X86/sim/syscall_emul.cc:74: warn: ignoring syscall set_robust_list(...)
build/X86/sim/syscall_emul.cc:85: warn: ignoring syscall rt_sigaction(...)
      (further warnings will be suppressed)
build/X86/sim/syscall_emul.cc:85: warn: ignoring syscall rt_sigprocmask(...)
      (further warnings will be suppressed)
build/X86/sim/mem_state.cc:443: info: Increasing stack size by one page.
build/X86/sim/syscall_emul.hh:1016: warn: readlink() called on '/proc/self/exe' may yield unexpected results in various settings.
      Returning '/home/gem5/splash/splash2/codes/kernels/fft/FFT'
build/X86/sim/syscall_emul.cc:74: warn: ignoring syscall mprotect(...)

FFT with Blocking Transpose
   65536 Complex Doubles
   4 Processors
   65536 Cache lines
   16 Byte line size
   4096 Bytes per page

build/X86/sim/syscall_emul.cc:74: warn: ignoring syscall mprotect(...)
build/X86/sim/power_state.cc:105: warn: PowerState: Already in the requested power state, request ignored
build/X86/sim/syscall_emul.cc:74: warn: ignoring syscall mprotect(...)
build/X86/sim/syscall_emul.cc:74: warn: ignoring syscall set_robust_list(...)
build/X86/sim/syscall_emul.cc:74: warn: ignoring syscall mprotect(...)
build/X86/sim/syscall_emul.cc:74: warn: ignoring syscall set_robust_list(...)
build/X86/sim/syscall_emul.cc:74: warn: ignoring syscall set_robust_list(...)
build/X86/sim/syscall_emul.cc:74: warn: ignoring syscall mprotect(...)
build/X86/sim/syscall_emul.cc:74: warn: ignoring syscall mprotect(...)
build/X86/sim/syscall_emul.cc:74: warn: ignoring syscall mprotect(...)
build/X86/sim/syscall_emul.cc:74: warn: ignoring syscall madvise(...)
build/X86/sim/syscall_emul.cc:74: warn: ignoring syscall madvise(...)
build/X86/sim/syscall_emul.cc:74: warn: ignoring syscall madvise(...)

                 PROCESS STATISTICS
            Computation      Transpose     Transpose
 Proc          Time            Time        Fraction
    0              9309           3928       0.42196

                 TIMING INFORMATION
Start time                        : 1000000000000102
Initialization finish time        : 1000000000015959
Overall finish time               : 1000000000025268
Total time with initialization    :            25166
Total time without initialization :             9309
Overall transpose time            :             3928
Overall transpose fraction        :          0.42196

	Command being timed: "./build/X86/gem5.debug /home/gem5/gem5_new/configs/mytest2/hello.py -f /home/gem5/gem5_new/ext/CMSpec/CMSpec/test/myTests/tc1_4.xml -c 4 -b FFT -m Octopus"
	User time (seconds): 2221.34
	System time (seconds): 0.12
	Percent of CPU this job got: 99%
	Elapsed (wall clock) time (h:mm:ss or m:ss): 37:01.89
	Average shared text size (kbytes): 0
	Average unshared data size (kbytes): 0
	Average stack size (kbytes): 0
	Average total size (kbytes): 0
	Maximum resident set size (kbytes): 212868
	Average resident set size (kbytes): 0
	Major (requiring I/O) page faults: 3
	Minor (reclaiming a frame) page faults: 40631
	Voluntary context switches: 51
	Involuntary context switches: 17038
	Swaps: 0
	File system inputs: 56
	File system outputs: 1376
	Socket messages sent: 0
	Socket messages received: 0
	Signals delivered: 0
	Page size (bytes): 4096
	Exit status: 0
Global frequency set at 1000000000000 ticks per second
build/X86/mem/dram_interface.cc:690: warn: DRAM device capacity (8192 Mbytes) does not match the address range assigned (4096 Mbytes)
simpleCache
DEBUG COH Protocol Name in XML header: MSI
FSM path: /home/gem5/gem5_new/ext/CMSpec/CMSpec/Protocols_FSM/
simpleCache
simpleCache
simpleCache
build/X86/mem/coherent_xbar.cc:140: warn: CoherentXBar board.cache_hierarchy.membus has no snooping ports attached!
0: board.remote_gdb: listening for remote gdb on port 7000
gem5 Simulator System.  https://www.gem5.org
gem5 is copyrighted software; use the --copyright option for details.

gem5 version 22.1.0.0
gem5 compiled Jun 16 2024 22:09:04
gem5 started Jun 25 2024 20:40:22
gem5 executing on gem5-VirtualBox, pid 17482
command line: ./build/X86/gem5.debug /home/gem5/gem5_new/configs/mytest2/hello.py -f /home/gem5/gem5_new/ext/CMSpec/CMSpec/test/myTests/tc1_4.xml -c 4 -b LU -m Octopus

warn: The simulate package is still in a beta state. The gem5 project does not guarantee the APIs within this package will remain consistent across upcoming releases.
warn: No dot file generated. Please install pydot to generate the dot file and pdf.
build/X86/sim/simulate.cc:192: info: Entering event queue @ 0.  Starting simulation...
build/X86/arch/x86/cpuid.cc:180: warn: x86 cpuid family 0x0000: unimplemented function 13
build/X86/sim/syscall_emul.cc:74: warn: ignoring syscall set_robust_list(...)
build/X86/sim/syscall_emul.cc:85: warn: ignoring syscall rt_sigaction(...)
      (further warnings will be suppressed)
build/X86/sim/syscall_emul.cc:85: warn: ignoring syscall rt_sigprocmask(...)
      (further warnings will be suppressed)
build/X86/sim/mem_state.cc:443: info: Increasing stack size by one page.
build/X86/sim/syscall_emul.hh:1016: warn: readlink() called on '/proc/self/exe' may yield unexpected results in various settings.
      Returning '/home/gem5/splash/splash2/codes/kernels/lu/non_contiguous_blocks/LU'
build/X86/sim/syscall_emul.cc:74: warn: ignoring syscall mprotect(...)

Blocked Dense LU Factorization
     400 by 400 Matrix
     4 Processors
     16 by 16 Element Blocks


build/X86/sim/syscall_emul.cc:74: warn: ignoring syscall mprotect(...)
build/X86/sim/power_state.cc:105: warn: PowerState: Already in the requested power state, request ignored
build/X86/sim/syscall_emul.cc:74: warn: ignoring syscall mprotect(...)
build/X86/sim/syscall_emul.cc:74: warn: ignoring syscall set_robust_list(...)
build/X86/sim/syscall_emul.cc:74: warn: ignoring syscall mprotect(...)
build/X86/sim/syscall_emul.cc:74: warn: ignoring syscall set_robust_list(...)
build/X86/sim/syscall_emul.cc:74: warn: ignoring syscall mprotect(...)
build/X86/sim/syscall_emul.cc:74: warn: ignoring syscall mprotect(...)
build/X86/sim/syscall_emul.cc:74: warn: ignoring syscall set_robust_list(...)
build/X86/sim/syscall_emul.cc:74: warn: ignoring syscall mprotect(...)
build/X86/sim/syscall_emul.cc:74: warn: ignoring syscall madvise(...)
build/X86/sim/syscall_emul.cc:74: warn: ignoring syscall madvise(...)
build/X86/sim/syscall_emul.cc:74: warn: ignoring syscall madvise(...)
                            PROCESS STATISTICS
              Total      Diagonal     Perimeter      Interior       Barrier
 Proc         Time         Time         Time           Time          Time
    0         32422           151          2278         29340           634

                            TIMING INFORMATION
Start time                        : 1000000000000104
Initialization finish time        : 1000000000012639
Overall finish time               : 1000000000045063
Total time with initialization    :            44959
Total time without initialization :            32424

	Command being timed: "./build/X86/gem5.debug /home/gem5/gem5_new/configs/mytest2/hello.py -f /home/gem5/gem5_new/ext/CMSpec/CMSpec/test/myTests/tc1_4.xml -c 4 -b LU -m Octopus"
	User time (seconds): 8764.72
	System time (seconds): 0.24
	Percent of CPU this job got: 99%
	Elapsed (wall clock) time (h:mm:ss or m:ss): 2:26:05
	Average shared text size (kbytes): 0
	Average unshared data size (kbytes): 0
	Average stack size (kbytes): 0
	Average total size (kbytes): 0
	Maximum resident set size (kbytes): 404488
	Average resident set size (kbytes): 0
	Major (requiring I/O) page faults: 0
	Minor (reclaiming a frame) page faults: 88583
	Voluntary context switches: 39
	Involuntary context switches: 62032
	Swaps: 0
	File system inputs: 0
	File system outputs: 1344
	Socket messages sent: 0
	Socket messages received: 0
	Signals delivered: 0
	Page size (bytes): 4096
	Exit status: 0
Global frequency set at 1000000000000 ticks per second
build/X86/mem/dram_interface.cc:690: warn: DRAM device capacity (8192 Mbytes) does not match the address range assigned (4096 Mbytes)
simpleCache
DEBUG COH Protocol Name in XML header: MSI
FSM path: /home/gem5/gem5_new/ext/CMSpec/CMSpec/Protocols_FSM/
simpleCache
simpleCache
simpleCache
build/X86/mem/coherent_xbar.cc:140: warn: CoherentXBar board.cache_hierarchy.membus has no snooping ports attached!
0: board.remote_gdb: listening for remote gdb on port 7000
gem5 Simulator System.  https://www.gem5.org
gem5 is copyrighted software; use the --copyright option for details.

gem5 version 22.1.0.0
gem5 compiled Jun 16 2024 22:09:04
gem5 started Jun 25 2024 23:06:28
gem5 executing on gem5-VirtualBox, pid 17591
command line: ./build/X86/gem5.debug /home/gem5/gem5_new/configs/mytest2/hello.py -f /home/gem5/gem5_new/ext/CMSpec/CMSpec/test/myTests/tc1_4.xml -c 4 -b BARNS -m Octopus

warn: The simulate package is still in a beta state. The gem5 project does not guarantee the APIs within this package will remain consistent across upcoming releases.
warn: No dot file generated. Please install pydot to generate the dot file and pdf.
build/X86/sim/simulate.cc:192: info: Entering event queue @ 0.  Starting simulation...
build/X86/arch/x86/cpuid.cc:180: warn: x86 cpuid family 0x0000: unimplemented function 13
build/X86/sim/syscall_emul.cc:74: warn: ignoring syscall set_robust_list(...)
build/X86/sim/syscall_emul.cc:85: warn: ignoring syscall rt_sigaction(...)
      (further warnings will be suppressed)
build/X86/sim/syscall_emul.cc:85: warn: ignoring syscall rt_sigprocmask(...)
      (further warnings will be suppressed)
build/X86/sim/mem_state.cc:443: info: Increasing stack size by one page.
build/X86/sim/syscall_emul.hh:1016: warn: readlink() called on '/proc/self/exe' may yield unexpected results in various settings.
      Returning '/home/gem5/splash/splash2/codes/apps/barnes/BARNES'
build/X86/sim/syscall_emul.cc:74: warn: ignoring syscall mprotect(...)

		Hack code: Plummer model

     nbody     dtime       eps       tol     dtout     tstop    fcells     NPROC
       512   0.02500    0.0500      1.00     0.250     0.075      2.00         4

COMPUTESTART  = 1000000000000986
build/X86/sim/syscall_emul.cc:74: warn: ignoring syscall mprotect(...)
build/X86/sim/power_state.cc:105: warn: PowerState: Already in the requested power state, request ignored
build/X86/sim/syscall_emul.cc:74: warn: ignoring syscall mprotect(...)
build/X86/sim/syscall_emul.cc:74: warn: ignoring syscall set_robust_list(...)
build/X86/sim/syscall_emul.cc:74: warn: ignoring syscall mprotect(...)
build/X86/sim/syscall_emul.cc:74: warn: ignoring syscall set_robust_list(...)
build/X86/sim/syscall_emul.cc:74: warn: ignoring syscall set_robust_list(...)
build/X86/arch/x86/generated/exec-ns.cc.inc:27: warn: instruction 'palignr_Vdq_Wdq_Ib' unimplemented
build/X86/arch/x86/generated/exec-ns.cc.inc:27: warn: instruction 'palignr_Vdq_Wdq_Ib' unimplemented
build/X86/arch/x86/generated/exec-ns.cc.inc:27: warn: instruction 'palignr_Vdq_Wdq_Ib' unimplemented
build/X86/arch/x86/generated/exec-ns.cc.inc:27: warn: instruction 'palignr_Vdq_Wdq_Ib' unimplemented
build/X86/arch/x86/generated/exec-ns.cc.inc:27: warn: instruction 'palignr_Vdq_Wdq_Ib' unimplemented
build/X86/arch/x86/generated/exec-ns.cc.inc:27: warn: instruction 'palignr_Vdq_Wdq_Ib' unimplemented
build/X86/arch/x86/generated/exec-ns.cc.inc:27: warn: instruction 'palignr_Vdq_Wdq_Ib' unimplemented
build/X86/arch/x86/generated/exec-ns.cc.inc:27: warn: instruction 'palignr_Vdq_Wdq_Ib' unimplemented
build/X86/arch/x86/faults.cc:166: panic: Tried to read unmapped address 0x13.
PC: (0x4067b9=>0x4067be).(1=>2), Instr:   MOVSD_XMM_M : ldfp   %xmm0_low, DS:[rbx + 0x10]
Memory Usage: 4382988 KBytes
Program aborted at tick 1162920000
--- BEGIN LIBC BACKTRACE ---
./build/X86/gem5.debug(+0x119e119)[0x563606ace119]
./build/X86/gem5.debug(+0x11c46b4)[0x563606af46b4]
/lib/x86_64-linux-gnu/libpthread.so.0(+0x14420)[0x7fece98e4420]
/lib/x86_64-linux-gnu/libc.so.6(gsignal+0xcb)[0x7fece8e4e00b]
/lib/x86_64-linux-gnu/libc.so.6(abort+0x12b)[0x7fece8e2d859]
./build/X86/gem5.debug(+0x204f94)[0x563605b34f94]
./build/X86/gem5.debug(+0x277f59)[0x563605ba7f59]
./build/X86/gem5.debug(+0x137ade7)[0x563606caade7]
./build/X86/gem5.debug(+0x136bdae)[0x563606c9bdae]
./build/X86/gem5.debug(+0x136a356)[0x563606c9a356]
./build/X86/gem5.debug(+0x1369a2e)[0x563606c99a2e]
./build/X86/gem5.debug(+0x13680b1)[0x563606c980b1]
./build/X86/gem5.debug(+0x1378ee6)[0x563606ca8ee6]
./build/X86/gem5.debug(+0x1375d15)[0x563606ca5d15]
./build/X86/gem5.debug(+0x137f52c)[0x563606caf52c]
./build/X86/gem5.debug(+0x2972a0)[0x563605bc72a0]
./build/X86/gem5.debug(+0x294784)[0x563605bc4784]
./build/X86/gem5.debug(+0x11b26c0)[0x563606ae26c0]
./build/X86/gem5.debug(+0x11df305)[0x563606b0f305]
./build/X86/gem5.debug(+0x11dedbb)[0x563606b0edbb]
./build/X86/gem5.debug(+0x197a3b0)[0x5636072aa3b0]
./build/X86/gem5.debug(+0x1978a62)[0x5636072a8a62]
./build/X86/gem5.debug(+0x1974c15)[0x5636072a4c15]
./build/X86/gem5.debug(+0x1974c80)[0x5636072a4c80]
./build/X86/gem5.debug(+0x218fe4)[0x563605b48fe4]
/lib/x86_64-linux-gnu/libpython3.8.so.1.0(+0x2a8748)[0x7fece9b9d748]
/lib/x86_64-linux-gnu/libpython3.8.so.1.0(_PyEval_EvalFrameDefault+0x8dd8)[0x7fece9972f48]
/lib/x86_64-linux-gnu/libpython3.8.so.1.0(_PyEval_EvalCodeWithName+0x8fb)[0x7fece9abfe4b]
/lib/x86_64-linux-gnu/libpython3.8.so.1.0(_PyFunction_Vectorcall+0x94)[0x7fece9b9d124]
/lib/x86_64-linux-gnu/libpython3.8.so.1.0(+0x74d6d)[0x7fece9969d6d]
/lib/x86_64-linux-gnu/libpython3.8.so.1.0(_PyEval_EvalFrameDefault+0x7d86)[0x7fece9971ef6]
/lib/x86_64-linux-gnu/libpython3.8.so.1.0(_PyEval_EvalCodeWithName+0x8fb)[0x7fece9abfe4b]
--- END LIBC BACKTRACE ---
Command terminated by signal 6
	Command being timed: "./build/X86/gem5.debug /home/gem5/gem5_new/configs/mytest2/hello.py -f /home/gem5/gem5_new/ext/CMSpec/CMSpec/test/myTests/tc1_4.xml -c 4 -b BARNS -m Octopus"
	User time (seconds): 46.80
	System time (seconds): 0.03
	Percent of CPU this job got: 99%
	Elapsed (wall clock) time (h:mm:ss or m:ss): 0:46.95
	Average shared text size (kbytes): 0
	Average unshared data size (kbytes): 0
	Average stack size (kbytes): 0
	Average total size (kbytes): 0
	Maximum resident set size (kbytes): 161940
	Average resident set size (kbytes): 0
	Major (requiring I/O) page faults: 0
	Minor (reclaiming a frame) page faults: 27764
	Voluntary context switches: 13
	Involuntary context switches: 393
	Swaps: 0
	File system inputs: 0
	File system outputs: 656
	Socket messages sent: 0
	Socket messages received: 0
	Signals delivered: 0
	Page size (bytes): 4096
	Exit status: 0
Global frequency set at 1000000000000 ticks per second
build/X86/mem/dram_interface.cc:690: warn: DRAM device capacity (8192 Mbytes) does not match the address range assigned (4096 Mbytes)
simpleCache
DEBUG COH Protocol Name in XML header: MSI
FSM path: /home/gem5/gem5_new/ext/CMSpec/CMSpec/Protocols_FSM/
simpleCache
simpleCache
simpleCache
build/X86/mem/coherent_xbar.cc:140: warn: CoherentXBar board.cache_hierarchy.membus has no snooping ports attached!
0: board.remote_gdb: listening for remote gdb on port 7000
gem5 Simulator System.  https://www.gem5.org
gem5 is copyrighted software; use the --copyright option for details.

gem5 version 22.1.0.0
gem5 compiled Jun 16 2024 22:09:04
gem5 started Jun 25 2024 23:07:15
gem5 executing on gem5-VirtualBox, pid 17594
command line: ./build/X86/gem5.debug /home/gem5/gem5_new/configs/mytest2/hello.py -f /home/gem5/gem5_new/ext/CMSpec/CMSpec/test/myTests/tc1_4.xml -c 4 -b FMM -m Octopus

warn: The simulate package is still in a beta state. The gem5 project does not guarantee the APIs within this package will remain consistent across upcoming releases.
warn: No dot file generated. Please install pydot to generate the dot file and pdf.
build/X86/sim/simulate.cc:192: info: Entering event queue @ 0.  Starting simulation...
build/X86/arch/x86/cpuid.cc:180: warn: x86 cpuid family 0x0000: unimplemented function 13
build/X86/sim/syscall_emul.cc:74: warn: ignoring syscall set_robust_list(...)
build/X86/sim/syscall_emul.cc:85: warn: ignoring syscall rt_sigaction(...)
      (further warnings will be suppressed)
build/X86/sim/syscall_emul.cc:85: warn: ignoring syscall rt_sigprocmask(...)
      (further warnings will be suppressed)
build/X86/sim/mem_state.cc:443: info: Increasing stack size by one page.
build/X86/sim/syscall_emul.hh:1016: warn: readlink() called on '/proc/self/exe' may yield unexpected results in various settings.
      Returning '/home/gem5/splash/splash2/codes/apps/fmm/FMM'
build/X86/sim/syscall_emul.cc:74: warn: ignoring syscall mprotect(...)
Creating a two cluster, non uniform distribution for 256 particles
build/X86/sim/syscall_emul.cc:74: warn: ignoring syscall mprotect(...)
build/X86/sim/power_state.cc:105: warn: PowerState: Already in the requested power state, request ignored
build/X86/sim/syscall_emul.cc:74: warn: ignoring syscall mprotect(...)
build/X86/sim/syscall_emul.cc:74: warn: ignoring syscall set_robust_list(...)
build/X86/sim/syscall_emul.cc:74: warn: ignoring syscall mprotect(...)
build/X86/sim/syscall_emul.cc:74: warn: ignoring syscall mprotect(...)
build/X86/sim/syscall_emul.cc:74: warn: ignoring syscall set_robust_list(...)
build/X86/sim/syscall_emul.cc:74: warn: ignoring syscall mprotect(...)
build/X86/sim/syscall_emul.cc:74: warn: ignoring syscall set_robust_list(...)
build/X86/sim/syscall_emul.cc:74: warn: ignoring syscall mprotect(...)
Starting FMM with 4 processors
build/X86/sim/syscall_emul.cc:74: warn: ignoring syscall madvise(...)
build/X86/sim/syscall_emul.cc:74: warn: ignoring syscall madvise(...)
build/X86/sim/syscall_emul.cc:74: warn: ignoring syscall madvise(...)
Finished FMM
                                   PROCESS STATISTICS
build/X86/arch/x86/generated/exec-ns.cc.inc:27: warn: instruction 'palignr_Vdq_Wdq_Ib' unimplemented
build/X86/arch/x86/generated/exec-ns.cc.inc:27: warn: instruction 'palignr_Vdq_Wdq_Ib' unimplemented
build/X86/arch/x86/generated/exec-ns.cc.inc:27: warn: instruction 'palignr_Vdq_Wdq_Ib' unimplemented
build/X86/arch/x86/generated/exec-ns.cc.inc:27: warn: instruction 'palignr_Vdq_Wdq_Ib' unimplemented
             Tra  Tree        List        Part        Pass       Inter        Ba      Bar        Intra       Other
 Proc        Time         Time        Time        Time        Time       Time         Time       Time        Time
    0         1923          59          52          42         468        1180          91           7          22

                                   TIMING INFORMATION
Start time                        : 1000000000000101
Initialization finish time        : 1000000000002702
Overall finish time               : 1000000000004626
Total time with initialization    :             4525
Total time without initialization :             1923

Total time for steps 3 to 5 :         1923

	Command being timed: "./build/X86/gem5.debug /home/gem5/gem5_new/configs/mytest2/hello.py -f /home/gem5/gem5_new/ext/CMSpec/CMSpec/test/myTests/tc1_4.xml -c 4 -b FMM -m Octopus"
	User time (seconds): 767.65
	System time (seconds): 0.09
	Percent of CPU this job got: 99%
	Elapsed (wall clock) time (h:mm:ss or m:ss): 12:48.08
	Average shared text size (kbytes): 0
	Average unshared data size (kbytes): 0
	Average stack size (kbytes): 0
	Average total size (kbytes): 0
	Maximum resident set size (kbytes): 189504
	Average resident set size (kbytes): 0
	Major (requiring I/O) page faults: 1
	Minor (reclaiming a frame) page faults: 34716
	Voluntary context switches: 79
	Involuntary context switches: 6998
	Swaps: 0
	File system inputs: 256
	File system outputs: 1472
	Socket messages sent: 0
	Socket messages received: 0
	Signals delivered: 0
	Page size (bytes): 4096
	Exit status: 0
Global frequency set at 1000000000000 ticks per second
build/X86/mem/dram_interface.cc:690: warn: DRAM device capacity (8192 Mbytes) does not match the address range assigned (4096 Mbytes)
simpleCache
DEBUG COH Protocol Name in XML header: MSI
FSM path: /home/gem5/gem5_new/ext/CMSpec/CMSpec/Protocols_FSM/
simpleCache
simpleCache
simpleCache
build/X86/mem/coherent_xbar.cc:140: warn: CoherentXBar board.cache_hierarchy.membus has no snooping ports attached!
0: board.remote_gdb: listening for remote gdb on port 7000
gem5 Simulator System.  https://www.gem5.org
gem5 is copyrighted software; use the --copyright option for details.

gem5 version 22.1.0.0
gem5 compiled Jun 16 2024 22:09:04
gem5 started Jun 25 2024 23:20:03
gem5 executing on gem5-VirtualBox, pid 17604
command line: ./build/X86/gem5.debug /home/gem5/gem5_new/configs/mytest2/hello.py -f /home/gem5/gem5_new/ext/CMSpec/CMSpec/test/myTests/tc1_4.xml -c 4 -b RADIOSITY -m Octopus

warn: The simulate package is still in a beta state. The gem5 project does not guarantee the APIs within this package will remain consistent across upcoming releases.
warn: No dot file generated. Please install pydot to generate the dot file and pdf.
build/X86/sim/simulate.cc:192: info: Entering event queue @ 0.  Starting simulation...
build/X86/arch/x86/cpuid.cc:180: warn: x86 cpuid family 0x0000: unimplemented function 13
build/X86/sim/syscall_emul.cc:74: warn: ignoring syscall set_robust_list(...)
build/X86/sim/syscall_emul.cc:85: warn: ignoring syscall rt_sigaction(...)
      (further warnings will be suppressed)
build/X86/sim/syscall_emul.cc:85: warn: ignoring syscall rt_sigprocmask(...)
      (further warnings will be suppressed)
build/X86/sim/mem_state.cc:443: info: Increasing stack size by one page.
build/X86/sim/syscall_emul.hh:1016: warn: readlink() called on '/proc/self/exe' may yield unexpected results in various settings.
      Returning '/home/gem5/splash/splash2/codes/apps/radiosity/RADIOSITY'
build/X86/sim/syscall_emul.cc:74: warn: ignoring syscall mprotect(...)
build/X86/sim/syscall_emul.cc:74: warn: ignoring syscall mprotect(...)
build/X86/sim/power_state.cc:105: warn: PowerState: Already in the requested power state, request ignored
build/X86/sim/syscall_emul.cc:74: warn: ignoring syscall mprotect(...)
build/X86/sim/syscall_emul.cc:74: warn: ignoring syscall set_robust_list(...)
build/X86/sim/syscall_emul.cc:74: warn: ignoring syscall mprotect(...)
build/X86/sim/syscall_emul.cc:74: warn: ignoring syscall set_robust_list(...)
build/X86/sim/syscall_emul.cc:74: warn: ignoring syscall set_robust_list(...)
build/X86/sim/syscall_emul.cc:74: warn: ignoring syscall madvise(...)
build/X86/sim/syscall_emul.cc:74: warn: ignoring syscall madvise(...)
build/X86/sim/syscall_emul.cc:74: warn: ignoring syscall madvise(...)
TIMING STATISTICS MEASURED BY MAIN PROCESS:
	Overall start time	    1000000000113940
	Overall end time	    1000000000206588
	Total time with initialization	               92648
	Total time without initialization	               92629
Rasiosity Statistics

    Histogram of interactions/elem
	 Interactions  Occurrence
	 -------------------------------
	    50          1 (210000.000000)
	    40          1 (118500.000000)
	    39          1 (118500.000000)
	    38          1 (5000.000000)
	    36          1 (210000.000000)
	    35          1 (245000.000000)
	    34          1 (245000.000000)
	    32          2 (107500.000000)
	    29          2 (227500.000000)
	    28          1 (61250.000000)
	    27          1 (3281.250000)
	    26          2 (131250.000000)
	    25          2 (61164.062500)
	    24          2 (426562.500000)
	    23          1 (3281.250000)
	    22          2 (131250.000000)
	    21          10 (47734.375000)
	    20          10 (15558.593750)
	    19          13 (99194.710938)
	    18          10 (138040.625000)
	    17          22 (30846.767578)
	    16          46 (13263.333008)
	    15          19 (22693.050781)
	    14          57 (12068.873047)
	    13          79 (13667.867188)
	    12          95 (16157.765625)
	    11          44 (35564.539062)
	    10          83 (13279.835938)
	    9          114 (19402.085938)
	    8          1158 (3437.692139)
	    7          149 (11943.471680)
	    6          152 (10394.579102)
	    5          242 (6705.159180)
	    4          205 (9516.223633)
	    3          396 (3963.430664)
	    2          515 (4704.451172)
	    1          382 (2418.264404)
	    0          531 (10211.212891)
    Configurations
	Patch assignment: Static equal number
	Always inserting at top of list for visibility testing (not sorted)
	Recursive pruning enabled for BSP tree traversal
	Patch cache:      Enabled
	Always check all other queues when task stealing (not neighbor scheme)
    Parameters
	Number of processors:    4
	Number of task queues:   4
	Number of tasks / queue: 200
	Area epsilon:            2000.000000
	#inter parallel refine:  5
	#visibility comp / task: 4
	BF epsilon:              0.015000
	Energy convergence:      0.005000
    Iterations to converge:   8 times
    Resource Usage
	Number of patches:            14
	Total number of elements:     4354
	Total number of interactions: 24052
	          completely visible: 20363
	        completely invisible: 1649
	           partially visible: 2040
	Interaction coherence (root interaction not counted)
	       Common for 4 siblings: 15332
	       Common for 3 siblings: 4350
	       Common for 2 siblings: 2554
	       Common for no sibling: 1517
	Avg. elements per patch:      311.0
	Avg. interactions per patch:  1718.0
	Avg. interactions per element:5.5
	Number of elements in equivalent uniform mesh: 8456
	Elem(hierarchical)/Elem(uniform): 51.49%
	Command being timed: "./build/X86/gem5.debug /home/gem5/gem5_new/configs/mytest2/hello.py -f /home/gem5/gem5_new/ext/CMSpec/CMSpec/test/myTests/tc1_4.xml -c 4 -b RADIOSITY -m Octopus"
	User time (seconds): 21944.93
	System time (seconds): 0.70
	Percent of CPU this job got: 99%
	Elapsed (wall clock) time (h:mm:ss or m:ss): 6:05:47
	Average shared text size (kbytes): 0
	Average unshared data size (kbytes): 0
	Average stack size (kbytes): 0
	Average total size (kbytes): 0
	Maximum resident set size (kbytes): 643600
	Average resident set size (kbytes): 0
	Major (requiring I/O) page faults: 2
	Minor (reclaiming a frame) page faults: 148206
	Voluntary context switches: 163
	Involuntary context switches: 147014
	Swaps: 0
	File system inputs: 104
	File system outputs: 1840
	Socket messages sent: 0
	Socket messages received: 0
	Signals delivered: 0
	Page size (bytes): 4096
	Exit status: 0
Global frequency set at 1000000000000 ticks per second
build/X86/mem/dram_interface.cc:690: warn: DRAM device capacity (8192 Mbytes) does not match the address range assigned (4096 Mbytes)
simpleCache
DEBUG COH Protocol Name in XML header: MSI
FSM path: /home/gem5/gem5_new/ext/CMSpec/CMSpec/Protocols_FSM/
simpleCache
simpleCache
simpleCache
build/X86/mem/coherent_xbar.cc:140: warn: CoherentXBar board.cache_hierarchy.membus has no snooping ports attached!
0: board.remote_gdb: listening for remote gdb on port 7000
gem5 Simulator System.  https://www.gem5.org
gem5 is copyrighted software; use the --copyright option for details.

gem5 version 22.1.0.0
gem5 compiled Jun 16 2024 22:09:04
gem5 started Jun 26 2024 05:25:50
gem5 executing on gem5-VirtualBox, pid 18774
command line: ./build/X86/gem5.debug /home/gem5/gem5_new/configs/mytest2/hello.py -f /home/gem5/gem5_new/ext/CMSpec/CMSpec/test/myTests/tc1_4.xml -c 4 -b WATER -m Octopus

warn: The simulate package is still in a beta state. The gem5 project does not guarantee the APIs within this package will remain consistent across upcoming releases.
warn: No dot file generated. Please install pydot to generate the dot file and pdf.
build/X86/sim/simulate.cc:192: info: Entering event queue @ 0.  Starting simulation...
build/X86/arch/x86/cpuid.cc:180: warn: x86 cpuid family 0x0000: unimplemented function 13
build/X86/sim/syscall_emul.cc:74: warn: ignoring syscall set_robust_list(...)
build/X86/sim/syscall_emul.cc:85: warn: ignoring syscall rt_sigaction(...)
      (further warnings will be suppressed)
build/X86/sim/syscall_emul.cc:85: warn: ignoring syscall rt_sigprocmask(...)
      (further warnings will be suppressed)
build/X86/sim/mem_state.cc:443: info: Increasing stack size by one page.
build/X86/sim/syscall_emul.hh:1016: warn: readlink() called on '/proc/self/exe' may yield unexpected results in various settings.
      Returning '/home/gem5/splash/splash2/codes/apps/water-nsquared/WATER-NSQUARED'
build/X86/sim/syscall_emul.cc:74: warn: ignoring syscall mprotect(...)
Using 4 procs on 3 steps of 512 mols
Other parameters:
	TSTEP = 1.50e-16
	NORDER = 6
	NSAVE = -1
	NRST = 3000
	NPRINT = 3
	NFMC = 0
	CUTOFF = 6.212752


TEMPERATURE                =   298.00 K
DENSITY                    =  0.99800 G/C.C.
NUMBER OF MOLECULES        =      512
NUMBER OF PROCESSORS       =        4
TIME STEP                  = 1.50e-01 SEC
ORDER USED TO SOLVE F=MA   =        6 
NO. OF TIME STEPS          =        3 
FREQUENCY OF DATA SAVING   =       -1 
FREQUENCY TO WRITE RST FILE=     3000 
SPHERICAL CUTOFF RADIUS    =   6.2128 ANGSTROM

NS = 7.9999899999999995
BOXL =  24.851010
CUTOFF =   6.212752
XS =   3.106380
ZERO = 1.55319
WCOS = 0.585882
WSIN = 0.756950
***** NEW RUN STARTING FROM REGULAR LATTICE *****
build/X86/sim/syscall_emul.cc:74: warn: ignoring syscall mprotect(...)
build/X86/sim/power_state.cc:105: warn: PowerState: Already in the requested power state, request ignored
build/X86/sim/syscall_emul.cc:74: warn: ignoring syscall set_robust_list(...)
build/X86/sim/syscall_emul.cc:74: warn: ignoring syscall mprotect(...)
build/X86/sim/syscall_emul.cc:74: warn: ignoring syscall mprotect(...)
build/X86/sim/syscall_emul.cc:74: warn: ignoring syscall set_robust_list(...)
build/X86/sim/syscall_emul.cc:74: warn: ignoring syscall set_robust_list(...)
         3        1.57495      0.05127     10.55761                      -2.15831
           10.026        305.74022        -19.57198
build/X86/sim/syscall_emul.cc:74: warn: ignoring syscall madvise(...)
build/X86/sim/syscall_emul.cc:74: warn: ignoring syscall madvise(...)
build/X86/sim/syscall_emul.cc:74: warn: ignoring syscall madvise(...)
COMPUTESTART (after initialization) = 1000000000011197
COMPUTEEND = 1000000000093953
COMPUTETIME (after initialization) = 82756
Measured Time (2nd timestep onward) = 49428
Intramolecular time only (2nd timestep onward) = 921
Intermolecular time only (2nd timestep onward) = 48437
Other time (2nd timestep onward) = 70

Exited Happily with XTT = 10.0255 (note: XTT value is garbage if NPRINT > NSTEP)
	Command being timed: "./build/X86/gem5.debug /home/gem5/gem5_new/configs/mytest2/hello.py -f /home/gem5/gem5_new/ext/CMSpec/CMSpec/test/myTests/tc1_4.xml -c 4 -b WATER -m Octopus"
	User time (seconds): 21473.98
	System time (seconds): 0.86
	Percent of CPU this job got: 99%
	Elapsed (wall clock) time (h:mm:ss or m:ss): 5:57:56
	Average shared text size (kbytes): 0
	Average unshared data size (kbytes): 0
	Average stack size (kbytes): 0
	Average total size (kbytes): 0
	Maximum resident set size (kbytes): 674892
	Average resident set size (kbytes): 0
	Major (requiring I/O) page faults: 1
	Minor (reclaiming a frame) page faults: 155952
	Voluntary context switches: 82
	Involuntary context switches: 143259
	Swaps: 0
	File system inputs: 24
	File system outputs: 1512
	Socket messages sent: 0
	Socket messages received: 0
	Signals delivered: 0
	Page size (bytes): 4096
	Exit status: 0
Global frequency set at 1000000000000 ticks per second
build/X86/mem/dram_interface.cc:690: warn: DRAM device capacity (8192 Mbytes) does not match the address range assigned (4096 Mbytes)
build/X86/base/statistics.hh:280: warn: One of the stats is a legacy stat. Legacy stat is a stat that does not belong to any statistics::Group. Legacy stat is deprecated.
0: board.remote_gdb: listening for remote gdb on port 7000
gem5 Simulator System.  https://www.gem5.org
gem5 is copyrighted software; use the --copyright option for details.

gem5 version 22.1.0.0
gem5 compiled Jun 16 2024 22:09:04
gem5 started Jun 26 2024 11:23:46
gem5 executing on gem5-VirtualBox, pid 22093
command line: ./build/X86/gem5.debug /home/gem5/gem5_new/configs/mytest2/hello.py -c 4 -b FFT -m Ruby

warn: The simulate package is still in a beta state. The gem5 project does not guarantee the APIs within this package will remain consistent across upcoming releases.
warn: No dot file generated. Please install pydot to generate the dot file and pdf.
build/X86/sim/simulate.cc:192: info: Entering event queue @ 0.  Starting simulation...
build/X86/mem/ruby/system/Sequencer.cc:613: warn: Replacement policy updates recently became the responsibility of SLICC state machines. Make sure to setMRU() near callbacks in .sm files!
build/X86/arch/x86/cpuid.cc:180: warn: x86 cpuid family 0x0000: unimplemented function 13
build/X86/sim/syscall_emul.cc:74: warn: ignoring syscall set_robust_list(...)
build/X86/sim/syscall_emul.cc:85: warn: ignoring syscall rt_sigaction(...)
      (further warnings will be suppressed)
build/X86/sim/syscall_emul.cc:85: warn: ignoring syscall rt_sigprocmask(...)
      (further warnings will be suppressed)
build/X86/sim/mem_state.cc:443: info: Increasing stack size by one page.
build/X86/sim/syscall_emul.hh:1016: warn: readlink() called on '/proc/self/exe' may yield unexpected results in various settings.
      Returning '/home/gem5/splash/splash2/codes/kernels/fft/FFT'
build/X86/sim/syscall_emul.cc:74: warn: ignoring syscall mprotect(...)

FFT with Blocking Transpose
   65536 Complex Doubles
   4 Processors
   65536 Cache lines
   16 Byte line size
   4096 Bytes per page

build/X86/sim/syscall_emul.cc:74: warn: ignoring syscall mprotect(...)
build/X86/sim/power_state.cc:105: warn: PowerState: Already in the requested power state, request ignored
build/X86/sim/syscall_emul.cc:74: warn: ignoring syscall mprotect(...)
build/X86/sim/syscall_emul.cc:74: warn: ignoring syscall set_robust_list(...)
build/X86/sim/syscall_emul.cc:74: warn: ignoring syscall set_robust_list(...)
build/X86/sim/syscall_emul.cc:74: warn: ignoring syscall mprotect(...)
build/X86/sim/syscall_emul.cc:74: warn: ignoring syscall set_robust_list(...)
build/X86/sim/syscall_emul.cc:74: warn: ignoring syscall mprotect(...)
build/X86/sim/syscall_emul.cc:74: warn: ignoring syscall mprotect(...)
build/X86/sim/syscall_emul.cc:74: warn: ignoring syscall mprotect(...)
build/X86/sim/syscall_emul.cc:74: warn: ignoring syscall madvise(...)
build/X86/sim/syscall_emul.cc:74: warn: ignoring syscall madvise(...)
build/X86/sim/syscall_emul.cc:74: warn: ignoring syscall madvise(...)

                 PROCESS STATISTICS
            Computation      Transpose     Transpose
 Proc          Time            Time        Fraction
    0              4980           2122       0.42610

                 TIMING INFORMATION
Start time                        : 1000000000000039
Initialization finish time        : 1000000000008680
Overall finish time               : 1000000000013660
Total time with initialization    :            13621
Total time without initialization :             4980
Overall transpose time            :             2122
Overall transpose fraction        :          0.42610

	Command being timed: "./build/X86/gem5.debug /home/gem5/gem5_new/configs/mytest2/hello.py -c 4 -b FFT -m Ruby"
	User time (seconds): 2054.99
	System time (seconds): 0.19
	Percent of CPU this job got: 99%
	Elapsed (wall clock) time (h:mm:ss or m:ss): 34:15.53
	Average shared text size (kbytes): 0
	Average unshared data size (kbytes): 0
	Average stack size (kbytes): 0
	Average total size (kbytes): 0
	Maximum resident set size (kbytes): 710428
	Average resident set size (kbytes): 0
	Major (requiring I/O) page faults: 0
	Minor (reclaiming a frame) page faults: 166292
	Voluntary context switches: 49
	Involuntary context switches: 18380
	Swaps: 0
	File system inputs: 0
	File system outputs: 2888
	Socket messages sent: 0
	Socket messages received: 0
	Signals delivered: 0
	Page size (bytes): 4096
	Exit status: 0
Global frequency set at 1000000000000 ticks per second
build/X86/mem/dram_interface.cc:690: warn: DRAM device capacity (8192 Mbytes) does not match the address range assigned (4096 Mbytes)
build/X86/base/statistics.hh:280: warn: One of the stats is a legacy stat. Legacy stat is a stat that does not belong to any statistics::Group. Legacy stat is deprecated.
0: board.remote_gdb: listening for remote gdb on port 7000
gem5 Simulator System.  https://www.gem5.org
gem5 is copyrighted software; use the --copyright option for details.

gem5 version 22.1.0.0
gem5 compiled Jun 16 2024 22:09:04
gem5 started Jun 26 2024 11:58:02
gem5 executing on gem5-VirtualBox, pid 22115
command line: ./build/X86/gem5.debug /home/gem5/gem5_new/configs/mytest2/hello.py -c 4 -b LU -m Ruby

warn: The simulate package is still in a beta state. The gem5 project does not guarantee the APIs within this package will remain consistent across upcoming releases.
warn: No dot file generated. Please install pydot to generate the dot file and pdf.
build/X86/sim/simulate.cc:192: info: Entering event queue @ 0.  Starting simulation...
build/X86/mem/ruby/system/Sequencer.cc:613: warn: Replacement policy updates recently became the responsibility of SLICC state machines. Make sure to setMRU() near callbacks in .sm files!
build/X86/arch/x86/cpuid.cc:180: warn: x86 cpuid family 0x0000: unimplemented function 13
build/X86/sim/syscall_emul.cc:74: warn: ignoring syscall set_robust_list(...)
build/X86/sim/syscall_emul.cc:85: warn: ignoring syscall rt_sigaction(...)
      (further warnings will be suppressed)
build/X86/sim/syscall_emul.cc:85: warn: ignoring syscall rt_sigprocmask(...)
      (further warnings will be suppressed)
build/X86/sim/mem_state.cc:443: info: Increasing stack size by one page.
build/X86/sim/syscall_emul.hh:1016: warn: readlink() called on '/proc/self/exe' may yield unexpected results in various settings.
      Returning '/home/gem5/splash/splash2/codes/kernels/lu/non_contiguous_blocks/LU'
build/X86/sim/syscall_emul.cc:74: warn: ignoring syscall mprotect(...)

Blocked Dense LU Factorization
     400 by 400 Matrix
     4 Processors
     16 by 16 Element Blocks


build/X86/sim/syscall_emul.cc:74: warn: ignoring syscall mprotect(...)
build/X86/sim/power_state.cc:105: warn: PowerState: Already in the requested power state, request ignored
build/X86/sim/syscall_emul.cc:74: warn: ignoring syscall mprotect(...)
build/X86/sim/syscall_emul.cc:74: warn: ignoring syscall set_robust_list(...)
build/X86/sim/syscall_emul.cc:74: warn: ignoring syscall mprotect(...)
build/X86/sim/syscall_emul.cc:74: warn: ignoring syscall set_robust_list(...)
build/X86/sim/syscall_emul.cc:74: warn: ignoring syscall mprotect(...)
build/X86/sim/syscall_emul.cc:74: warn: ignoring syscall mprotect(...)
build/X86/sim/syscall_emul.cc:74: warn: ignoring syscall set_robust_list(...)
build/X86/sim/syscall_emul.cc:74: warn: ignoring syscall mprotect(...)
build/X86/sim/syscall_emul.cc:74: warn: ignoring syscall madvise(...)
build/X86/sim/syscall_emul.cc:74: warn: ignoring syscall madvise(...)
build/X86/sim/syscall_emul.cc:74: warn: ignoring syscall madvise(...)
                            PROCESS STATISTICS
              Total      Diagonal     Perimeter      Interior       Barrier
 Proc         Time         Time         Time           Time          Time
    0         14741            77          1276         13031           348

                            TIMING INFORMATION
Start time                        : 1000000000000040
Initialization finish time        : 1000000000006117
Overall finish time               : 1000000000020860
Total time with initialization    :            20820
Total time without initialization :            14743

	Command being timed: "./build/X86/gem5.debug /home/gem5/gem5_new/configs/mytest2/hello.py -c 4 -b LU -m Ruby"
	User time (seconds): 7355.45
	System time (seconds): 0.27
	Percent of CPU this job got: 99%
	Elapsed (wall clock) time (h:mm:ss or m:ss): 2:02:36
	Average shared text size (kbytes): 0
	Average unshared data size (kbytes): 0
	Average stack size (kbytes): 0
	Average total size (kbytes): 0
	Maximum resident set size (kbytes): 708532
	Average resident set size (kbytes): 0
	Major (requiring I/O) page faults: 0
	Minor (reclaiming a frame) page faults: 165442
	Voluntary context switches: 39
	Involuntary context switches: 61136
	Swaps: 0
	File system inputs: 0
	File system outputs: 2872
	Socket messages sent: 0
	Socket messages received: 0
	Signals delivered: 0
	Page size (bytes): 4096
	Exit status: 0
Global frequency set at 1000000000000 ticks per second
build/X86/mem/dram_interface.cc:690: warn: DRAM device capacity (8192 Mbytes) does not match the address range assigned (4096 Mbytes)
build/X86/base/statistics.hh:280: warn: One of the stats is a legacy stat. Legacy stat is a stat that does not belong to any statistics::Group. Legacy stat is deprecated.
0: board.remote_gdb: listening for remote gdb on port 7000
gem5 Simulator System.  https://www.gem5.org
gem5 is copyrighted software; use the --copyright option for details.

gem5 version 22.1.0.0
gem5 compiled Jun 16 2024 22:09:04
gem5 started Jun 26 2024 14:00:38
gem5 executing on gem5-VirtualBox, pid 22179
command line: ./build/X86/gem5.debug /home/gem5/gem5_new/configs/mytest2/hello.py -c 4 -b BARNS -m Ruby

warn: The simulate package is still in a beta state. The gem5 project does not guarantee the APIs within this package will remain consistent across upcoming releases.
warn: No dot file generated. Please install pydot to generate the dot file and pdf.
build/X86/sim/simulate.cc:192: info: Entering event queue @ 0.  Starting simulation...
build/X86/mem/ruby/system/Sequencer.cc:613: warn: Replacement policy updates recently became the responsibility of SLICC state machines. Make sure to setMRU() near callbacks in .sm files!
build/X86/arch/x86/cpuid.cc:180: warn: x86 cpuid family 0x0000: unimplemented function 13
build/X86/sim/syscall_emul.cc:74: warn: ignoring syscall set_robust_list(...)
build/X86/sim/syscall_emul.cc:85: warn: ignoring syscall rt_sigaction(...)
      (further warnings will be suppressed)
build/X86/sim/syscall_emul.cc:85: warn: ignoring syscall rt_sigprocmask(...)
      (further warnings will be suppressed)
build/X86/sim/mem_state.cc:443: info: Increasing stack size by one page.
build/X86/sim/syscall_emul.hh:1016: warn: readlink() called on '/proc/self/exe' may yield unexpected results in various settings.
      Returning '/home/gem5/splash/splash2/codes/apps/barnes/BARNES'
build/X86/sim/syscall_emul.cc:74: warn: ignoring syscall mprotect(...)

		Hack code: Plummer model

     nbody     dtime       eps       tol     dtout     tstop    fcells     NPROC
      1024   0.02500    0.0500      1.00     0.250     0.075      2.00         4

COMPUTESTART  = 1000000000000683
build/X86/sim/syscall_emul.cc:74: warn: ignoring syscall mprotect(...)
build/X86/sim/power_state.cc:105: warn: PowerState: Already in the requested power state, request ignored
build/X86/sim/syscall_emul.cc:74: warn: ignoring syscall mprotect(...)
build/X86/sim/syscall_emul.cc:74: warn: ignoring syscall set_robust_list(...)
build/X86/sim/syscall_emul.cc:74: warn: ignoring syscall set_robust_list(...)
build/X86/sim/syscall_emul.cc:74: warn: ignoring syscall mprotect(...)
build/X86/sim/syscall_emul.cc:74: warn: ignoring syscall set_robust_list(...)
build/X86/arch/x86/generated/exec-ns.cc.inc:27: warn: instruction 'palignr_Vdq_Wdq_Ib' unimplemented
build/X86/arch/x86/generated/exec-ns.cc.inc:27: warn: instruction 'palignr_Vdq_Wdq_Ib' unimplemented
build/X86/arch/x86/generated/exec-ns.cc.inc:27: warn: instruction 'palignr_Vdq_Wdq_Ib' unimplemented
build/X86/arch/x86/generated/exec-ns.cc.inc:27: warn: instruction 'palignr_Vdq_Wdq_Ib' unimplemented
build/X86/arch/x86/generated/exec-ns.cc.inc:27: warn: instruction 'palignr_Vdq_Wdq_Ib' unimplemented
build/X86/arch/x86/generated/exec-ns.cc.inc:27: warn: instruction 'palignr_Vdq_Wdq_Ib' unimplemented
build/X86/arch/x86/generated/exec-ns.cc.inc:27: warn: instruction 'palignr_Vdq_Wdq_Ib' unimplemented
build/X86/arch/x86/generated/exec-ns.cc.inc:27: warn: instruction 'palignr_Vdq_Wdq_Ib' unimplemented
build/X86/arch/x86/faults.cc:166: panic: Tried to read unmapped address 0x13.
PC: (0x4067b9=>0x4067be).(1=>2), Instr:   MOVSD_XMM_M : ldfp   %xmm0_low, DS:[rbx + 0x10]
Memory Usage: 4930568 KBytes
Program aborted at tick 3257116000
--- BEGIN LIBC BACKTRACE ---
./build/X86/gem5.debug(+0x119e119)[0x555f4ee27119]
./build/X86/gem5.debug(+0x11c46b4)[0x555f4ee4d6b4]
/lib/x86_64-linux-gnu/libpthread.so.0(+0x14420)[0x7f6f0b74d420]
/lib/x86_64-linux-gnu/libc.so.6(gsignal+0xcb)[0x7f6f0acb700b]
/lib/x86_64-linux-gnu/libc.so.6(abort+0x12b)[0x7f6f0ac96859]
./build/X86/gem5.debug(+0x204f94)[0x555f4de8df94]
./build/X86/gem5.debug(+0x277f59)[0x555f4df00f59]
./build/X86/gem5.debug(+0x137ade7)[0x555f4f003de7]
./build/X86/gem5.debug(+0x136bdae)[0x555f4eff4dae]
./build/X86/gem5.debug(+0x136a356)[0x555f4eff3356]
./build/X86/gem5.debug(+0x1369a2e)[0x555f4eff2a2e]
./build/X86/gem5.debug(+0x13680b1)[0x555f4eff10b1]
./build/X86/gem5.debug(+0x1378ee6)[0x555f4f001ee6]
./build/X86/gem5.debug(+0x1375d15)[0x555f4effed15]
./build/X86/gem5.debug(+0x137f52c)[0x555f4f00852c]
./build/X86/gem5.debug(+0x2972a0)[0x555f4df202a0]
./build/X86/gem5.debug(+0x294784)[0x555f4df1d784]
./build/X86/gem5.debug(+0x11b26c0)[0x555f4ee3b6c0]
./build/X86/gem5.debug(+0x11df305)[0x555f4ee68305]
./build/X86/gem5.debug(+0x11dedbb)[0x555f4ee67dbb]
./build/X86/gem5.debug(+0x197a3b0)[0x555f4f6033b0]
./build/X86/gem5.debug(+0x1978a62)[0x555f4f601a62]
./build/X86/gem5.debug(+0x1974c15)[0x555f4f5fdc15]
./build/X86/gem5.debug(+0x1974c80)[0x555f4f5fdc80]
./build/X86/gem5.debug(+0x218fe4)[0x555f4dea1fe4]
/lib/x86_64-linux-gnu/libpython3.8.so.1.0(+0x2a8748)[0x7f6f0ba06748]
/lib/x86_64-linux-gnu/libpython3.8.so.1.0(_PyEval_EvalFrameDefault+0x8dd8)[0x7f6f0b7dbf48]
/lib/x86_64-linux-gnu/libpython3.8.so.1.0(_PyEval_EvalCodeWithName+0x8fb)[0x7f6f0b928e4b]
/lib/x86_64-linux-gnu/libpython3.8.so.1.0(_PyFunction_Vectorcall+0x94)[0x7f6f0ba06124]
/lib/x86_64-linux-gnu/libpython3.8.so.1.0(+0x74d6d)[0x7f6f0b7d2d6d]
/lib/x86_64-linux-gnu/libpython3.8.so.1.0(_PyEval_EvalFrameDefault+0x7d86)[0x7f6f0b7daef6]
/lib/x86_64-linux-gnu/libpython3.8.so.1.0(_PyEval_EvalCodeWithName+0x8fb)[0x7f6f0b928e4b]
--- END LIBC BACKTRACE ---
Command terminated by signal 6
	Command being timed: "./build/X86/gem5.debug /home/gem5/gem5_new/configs/mytest2/hello.py -c 4 -b BARNS -m Ruby"
	User time (seconds): 981.39
	System time (seconds): 0.21
	Percent of CPU this job got: 99%
	Elapsed (wall clock) time (h:mm:ss or m:ss): 16:21.95
	Average shared text size (kbytes): 0
	Average unshared data size (kbytes): 0
	Average stack size (kbytes): 0
	Average total size (kbytes): 0
	Maximum resident set size (kbytes): 710068
	Average resident set size (kbytes): 0
	Major (requiring I/O) page faults: 0
	Minor (reclaiming a frame) page faults: 165363
	Voluntary context switches: 13
	Involuntary context switches: 8319
	Swaps: 0
	File system inputs: 0
	File system outputs: 1696
	Socket messages sent: 0
	Socket messages received: 0
	Signals delivered: 0
	Page size (bytes): 4096
	Exit status: 0
Global frequency set at 1000000000000 ticks per second
build/X86/mem/dram_interface.cc:690: warn: DRAM device capacity (8192 Mbytes) does not match the address range assigned (4096 Mbytes)
build/X86/base/statistics.hh:280: warn: One of the stats is a legacy stat. Legacy stat is a stat that does not belong to any statistics::Group. Legacy stat is deprecated.
0: board.remote_gdb: listening for remote gdb on port 7000
gem5 Simulator System.  https://www.gem5.org
gem5 is copyrighted software; use the --copyright option for details.

gem5 version 22.1.0.0
gem5 compiled Jun 16 2024 22:09:04
gem5 started Jun 26 2024 14:17:00
gem5 executing on gem5-VirtualBox, pid 22186
command line: ./build/X86/gem5.debug /home/gem5/gem5_new/configs/mytest2/hello.py -c 4 -b FMM -m Ruby

warn: The simulate package is still in a beta state. The gem5 project does not guarantee the APIs within this package will remain consistent across upcoming releases.
warn: No dot file generated. Please install pydot to generate the dot file and pdf.
build/X86/sim/simulate.cc:192: info: Entering event queue @ 0.  Starting simulation...
build/X86/mem/ruby/system/Sequencer.cc:613: warn: Replacement policy updates recently became the responsibility of SLICC state machines. Make sure to setMRU() near callbacks in .sm files!
build/X86/arch/x86/cpuid.cc:180: warn: x86 cpuid family 0x0000: unimplemented function 13
build/X86/sim/syscall_emul.cc:74: warn: ignoring syscall set_robust_list(...)
build/X86/sim/syscall_emul.cc:85: warn: ignoring syscall rt_sigaction(...)
      (further warnings will be suppressed)
build/X86/sim/syscall_emul.cc:85: warn: ignoring syscall rt_sigprocmask(...)
      (further warnings will be suppressed)
build/X86/sim/mem_state.cc:443: info: Increasing stack size by one page.
build/X86/sim/syscall_emul.hh:1016: warn: readlink() called on '/proc/self/exe' may yield unexpected results in various settings.
      Returning '/home/gem5/splash/splash2/codes/apps/fmm/FMM'
build/X86/sim/syscall_emul.cc:74: warn: ignoring syscall mprotect(...)
Creating a two cluster, non uniform distribution for 256 particles
build/X86/sim/syscall_emul.cc:74: warn: ignoring syscall mprotect(...)
build/X86/sim/power_state.cc:105: warn: PowerState: Already in the requested power state, request ignored
build/X86/sim/syscall_emul.cc:74: warn: ignoring syscall mprotect(...)
build/X86/sim/syscall_emul.cc:74: warn: ignoring syscall set_robust_list(...)
build/X86/sim/syscall_emul.cc:74: warn: ignoring syscall mprotect(...)
build/X86/sim/syscall_emul.cc:74: warn: ignoring syscall set_robust_list(...)
build/X86/sim/syscall_emul.cc:74: warn: ignoring syscall mprotect(...)
build/X86/sim/syscall_emul.cc:74: warn: ignoring syscall mprotect(...)
build/X86/sim/syscall_emul.cc:74: warn: ignoring syscall set_robust_list(...)
build/X86/sim/syscall_emul.cc:74: warn: ignoring syscall mprotect(...)
Starting FMM with 4 processors
build/X86/sim/syscall_emul.cc:74: warn: ignoring syscall madvise(...)
build/X86/sim/syscall_emul.cc:74: warn: ignoring syscall madvise(...)
build/X86/sim/syscall_emul.cc:74: warn: ignoring syscall madvise(...)
Finished FMM
                                   PROCESS STATISTICS
build/X86/arch/x86/generated/exec-ns.cc.inc:27: warn: instruction 'palignr_Vdq_Wdq_Ib' unimplemented
build/X86/arch/x86/generated/exec-ns.cc.inc:27: warn: instruction 'palignr_Vdq_Wdq_Ib' unimplemented
build/X86/arch/x86/generated/exec-ns.cc.inc:27: warn: instruction 'palignr_Vdq_Wdq_Ib' unimplemented
build/X86/arch/x86/generated/exec-ns.cc.inc:27: warn: instruction 'palignr_Vdq_Wdq_Ib' unimplemented
             Tra  Tree        List        Part        Pass       Inter        Ba      Bar        Intra       Other
 Proc        Time         Time        Time        Time        Time       Time         Time       Time        Time
    0         1487          38          40          35         337         941          65           5          21

                                   TIMING INFORMATION
Start time                        : 1000000000000039
Initialization finish time        : 1000000000001681
Overall finish time               : 1000000000003168
Total time with initialization    :             3129
Total time without initialization :             1487

Total time for steps 3 to 5 :         1487

	Command being timed: "./build/X86/gem5.debug /home/gem5/gem5_new/configs/mytest2/hello.py -c 4 -b FMM -m Ruby"
	User time (seconds): 754.32
	System time (seconds): 0.19
	Percent of CPU this job got: 99%
	Elapsed (wall clock) time (h:mm:ss or m:ss): 12:34.75
	Average shared text size (kbytes): 0
	Average unshared data size (kbytes): 0
	Average stack size (kbytes): 0
	Average total size (kbytes): 0
	Maximum resident set size (kbytes): 729372
	Average resident set size (kbytes): 0
	Major (requiring I/O) page faults: 2
	Minor (reclaiming a frame) page faults: 170350
	Voluntary context switches: 81
	Involuntary context switches: 5602
	Swaps: 0
	File system inputs: 168
	File system outputs: 3016
	Socket messages sent: 0
	Socket messages received: 0
	Signals delivered: 0
	Page size (bytes): 4096
	Exit status: 0
Global frequency set at 1000000000000 ticks per second
build/X86/mem/dram_interface.cc:690: warn: DRAM device capacity (8192 Mbytes) does not match the address range assigned (4096 Mbytes)
build/X86/base/statistics.hh:280: warn: One of the stats is a legacy stat. Legacy stat is a stat that does not belong to any statistics::Group. Legacy stat is deprecated.
0: board.remote_gdb: listening for remote gdb on port 7000
gem5 Simulator System.  https://www.gem5.org
gem5 is copyrighted software; use the --copyright option for details.

gem5 version 22.1.0.0
gem5 compiled Jun 16 2024 22:09:04
gem5 started Jun 26 2024 14:29:35
gem5 executing on gem5-VirtualBox, pid 22196
command line: ./build/X86/gem5.debug /home/gem5/gem5_new/configs/mytest2/hello.py -c 4 -b RADIOSITY -m Ruby

warn: The simulate package is still in a beta state. The gem5 project does not guarantee the APIs within this package will remain consistent across upcoming releases.
warn: No dot file generated. Please install pydot to generate the dot file and pdf.
build/X86/sim/simulate.cc:192: info: Entering event queue @ 0.  Starting simulation...
build/X86/mem/ruby/system/Sequencer.cc:613: warn: Replacement policy updates recently became the responsibility of SLICC state machines. Make sure to setMRU() near callbacks in .sm files!
build/X86/arch/x86/cpuid.cc:180: warn: x86 cpuid family 0x0000: unimplemented function 13
build/X86/sim/syscall_emul.cc:74: warn: ignoring syscall set_robust_list(...)
build/X86/sim/syscall_emul.cc:85: warn: ignoring syscall rt_sigaction(...)
      (further warnings will be suppressed)
build/X86/sim/syscall_emul.cc:85: warn: ignoring syscall rt_sigprocmask(...)
      (further warnings will be suppressed)
build/X86/sim/mem_state.cc:443: info: Increasing stack size by one page.
build/X86/sim/syscall_emul.hh:1016: warn: readlink() called on '/proc/self/exe' may yield unexpected results in various settings.
      Returning '/home/gem5/splash/splash2/codes/apps/radiosity/RADIOSITY'
build/X86/sim/syscall_emul.cc:74: warn: ignoring syscall mprotect(...)
build/X86/sim/syscall_emul.cc:74: warn: ignoring syscall mprotect(...)
build/X86/sim/power_state.cc:105: warn: PowerState: Already in the requested power state, request ignored
build/X86/sim/syscall_emul.cc:74: warn: ignoring syscall mprotect(...)
build/X86/sim/syscall_emul.cc:74: warn: ignoring syscall set_robust_list(...)
build/X86/sim/syscall_emul.cc:74: warn: ignoring syscall mprotect(...)
build/X86/sim/syscall_emul.cc:74: warn: ignoring syscall set_robust_list(...)
build/X86/sim/syscall_emul.cc:74: warn: ignoring syscall set_robust_list(...)
build/X86/sim/syscall_emul.cc:74: warn: ignoring syscall madvise(...)
build/X86/sim/syscall_emul.cc:74: warn: ignoring syscall madvise(...)
build/X86/sim/syscall_emul.cc:74: warn: ignoring syscall madvise(...)
TIMING STATISTICS MEASURED BY MAIN PROCESS:
	Overall start time	    1000000000045341
	Overall end time	    1000000000101227
	Total time with initialization	               55886
	Total time without initialization	               55877
Rasiosity Statistics

    Histogram of interactions/elem
	 Interactions  Occurrence
	 -------------------------------
	    50          1 (210000.000000)
	    39          1 (118500.000000)
	    37          1 (118500.000000)
	    36          1 (210000.000000)
	    35          1 (245000.000000)
	    34          1 (245000.000000)
	    32          3 (73333.335938)
	    30          1 (245000.000000)
	    29          1 (210000.000000)
	    28          2 (106640.625000)
	    27          1 (61250.000000)
	    26          2 (131250.000000)
	    25          1 (118500.000000)
	    24          2 (426562.500000)
	    23          3 (3645.833252)
	    22          2 (28164.062500)
	    21          6 (32510.416016)
	    20          8 (34350.585938)
	    19          16 (92080.078125)
	    18          10 (138040.625000)
	    17          21 (39628.906250)
	    16          44 (13027.253906)
	    15          21 (23494.046875)
	    14          55 (12941.974609)
	    13          73 (10927.546875)
	    12          90 (16459.455078)
	    11          50 (32631.169922)
	    10          80 (11968.017578)
	    9          110 (19310.917969)
	    8          1156 (3566.635986)
	    7          148 (11199.240234)
	    6          154 (11108.305664)
	    5          245 (6765.912109)
	    4          211 (9215.812500)
	    3          377 (4489.202148)
	    2          539 (4398.078613)
	    1          385 (2451.622314)
	    0          527 (10282.491211)
    Configurations
	Patch assignment: Static equal number
	Always inserting at top of list for visibility testing (not sorted)
	Recursive pruning enabled for BSP tree traversal
	Patch cache:      Enabled
	Always check all other queues when task stealing (not neighbor scheme)
    Parameters
	Number of processors:    4
	Number of task queues:   4
	Number of tasks / queue: 200
	Area epsilon:            2000.000000
	#inter parallel refine:  5
	#visibility comp / task: 4
	BF epsilon:              0.015000
	Energy convergence:      0.005000
    Iterations to converge:   7 times
    Resource Usage
	Number of patches:            14
	Total number of elements:     4350
	Total number of interactions: 23863
	          completely visible: 20172
	        completely invisible: 1648
	           partially visible: 2043
	Interaction coherence (root interaction not counted)
	       Common for 4 siblings: 15240
	       Common for 3 siblings: 4272
	       Common for 2 siblings: 2560
	       Common for no sibling: 1501
	Avg. elements per patch:      310.7
	Avg. interactions per patch:  1704.5
	Avg. interactions per element:5.5
	Number of elements in equivalent uniform mesh: 8456
	Elem(hierarchical)/Elem(uniform): 51.44%
	Command being timed: "./build/X86/gem5.debug /home/gem5/gem5_new/configs/mytest2/hello.py -c 4 -b RADIOSITY -m Ruby"
	User time (seconds): 20785.41
	System time (seconds): 0.39
	Percent of CPU this job got: 99%
	Elapsed (wall clock) time (h:mm:ss or m:ss): 5:46:27
	Average shared text size (kbytes): 0
	Average unshared data size (kbytes): 0
	Average stack size (kbytes): 0
	Average total size (kbytes): 0
	Maximum resident set size (kbytes): 815692
	Average resident set size (kbytes): 0
	Major (requiring I/O) page faults: 0
	Minor (reclaiming a frame) page faults: 202265
	Voluntary context switches: 162
	Involuntary context switches: 127694
	Swaps: 0
	File system inputs: 0
	File system outputs: 3368
	Socket messages sent: 0
	Socket messages received: 0
	Signals delivered: 0
	Page size (bytes): 4096
	Exit status: 0
Global frequency set at 1000000000000 ticks per second
build/X86/mem/dram_interface.cc:690: warn: DRAM device capacity (8192 Mbytes) does not match the address range assigned (4096 Mbytes)
build/X86/base/statistics.hh:280: warn: One of the stats is a legacy stat. Legacy stat is a stat that does not belong to any statistics::Group. Legacy stat is deprecated.
0: board.remote_gdb: listening for remote gdb on port 7000
gem5 Simulator System.  https://www.gem5.org
gem5 is copyrighted software; use the --copyright option for details.

gem5 version 22.1.0.0
gem5 compiled Jun 16 2024 22:09:04
gem5 started Jun 26 2024 20:16:02
gem5 executing on gem5-VirtualBox, pid 22542
command line: ./build/X86/gem5.debug /home/gem5/gem5_new/configs/mytest2/hello.py -c 4 -b WATER -m Ruby

warn: The simulate package is still in a beta state. The gem5 project does not guarantee the APIs within this package will remain consistent across upcoming releases.
warn: No dot file generated. Please install pydot to generate the dot file and pdf.
build/X86/sim/simulate.cc:192: info: Entering event queue @ 0.  Starting simulation...
build/X86/mem/ruby/system/Sequencer.cc:613: warn: Replacement policy updates recently became the responsibility of SLICC state machines. Make sure to setMRU() near callbacks in .sm files!
build/X86/arch/x86/cpuid.cc:180: warn: x86 cpuid family 0x0000: unimplemented function 13
build/X86/sim/syscall_emul.cc:74: warn: ignoring syscall set_robust_list(...)
build/X86/sim/syscall_emul.cc:85: warn: ignoring syscall rt_sigaction(...)
      (further warnings will be suppressed)
build/X86/sim/syscall_emul.cc:85: warn: ignoring syscall rt_sigprocmask(...)
      (further warnings will be suppressed)
build/X86/sim/mem_state.cc:443: info: Increasing stack size by one page.
build/X86/sim/syscall_emul.hh:1016: warn: readlink() called on '/proc/self/exe' may yield unexpected results in various settings.
      Returning '/home/gem5/splash/splash2/codes/apps/water-nsquared/WATER-NSQUARED'
build/X86/sim/syscall_emul.cc:74: warn: ignoring syscall mprotect(...)
Using 4 procs on 3 steps of 512 mols
Other parameters:
	TSTEP = 1.50e-16
	NORDER = 6
	NSAVE = -1
	NRST = 3000
	NPRINT = 3
	NFMC = 0
	CUTOFF = 6.212752


TEMPERATURE                =   298.00 K
DENSITY                    =  0.99800 G/C.C.
NUMBER OF MOLECULES        =      512
NUMBER OF PROCESSORS       =        4
TIME STEP                  = 1.50e-01 SEC
ORDER USED TO SOLVE F=MA   =        6 
NO. OF TIME STEPS          =        3 
FREQUENCY OF DATA SAVING   =       -1 
FREQUENCY TO WRITE RST FILE=     3000 
SPHERICAL CUTOFF RADIUS    =   6.2128 ANGSTROM

NS = 7.9999899999999995
BOXL =  24.851010
CUTOFF =   6.212752
XS =   3.106380
ZERO = 1.55319
WCOS = 0.585882
WSIN = 0.756950
***** NEW RUN STARTING FROM REGULAR LATTICE *****
build/X86/sim/syscall_emul.cc:74: warn: ignoring syscall mprotect(...)
build/X86/sim/power_state.cc:105: warn: PowerState: Already in the requested power state, request ignored
build/X86/sim/syscall_emul.cc:74: warn: ignoring syscall set_robust_list(...)
build/X86/sim/syscall_emul.cc:74: warn: ignoring syscall mprotect(...)
build/X86/sim/syscall_emul.cc:74: warn: ignoring syscall set_robust_list(...)
build/X86/sim/syscall_emul.cc:74: warn: ignoring syscall mprotect(...)
build/X86/sim/syscall_emul.cc:74: warn: ignoring syscall set_robust_list(...)
         3        1.57495      0.05127     10.55761                      -2.15831
           10.026        305.74022        -19.57198
build/X86/sim/syscall_emul.cc:74: warn: ignoring syscall madvise(...)
build/X86/sim/syscall_emul.cc:74: warn: ignoring syscall madvise(...)
build/X86/sim/syscall_emul.cc:74: warn: ignoring syscall madvise(...)
COMPUTESTART (after initialization) = 1000000000008558
COMPUTEEND = 1000000000071053
COMPUTETIME (after initialization) = 62495
Measured Time (2nd timestep onward) = 37359
Intramolecular time only (2nd timestep onward) = 551
Intermolecular time only (2nd timestep onward) = 36766
Other time (2nd timestep onward) = 42

Exited Happily with XTT = 10.0255 (note: XTT value is garbage if NPRINT > NSTEP)
	Command being timed: "./build/X86/gem5.debug /home/gem5/gem5_new/configs/mytest2/hello.py -c 4 -b WATER -m Ruby"
	User time (seconds): 21914.97
	System time (seconds): 0.26
	Percent of CPU this job got: 99%
	Elapsed (wall clock) time (h:mm:ss or m:ss): 6:05:16
	Average shared text size (kbytes): 0
	Average unshared data size (kbytes): 0
	Average stack size (kbytes): 0
	Average total size (kbytes): 0
	Maximum resident set size (kbytes): 728316
	Average resident set size (kbytes): 0
	Major (requiring I/O) page faults: 1
	Minor (reclaiming a frame) page faults: 169895
	Voluntary context switches: 82
	Involuntary context switches: 136070
	Swaps: 0
	File system inputs: 184
	File system outputs: 3040
	Socket messages sent: 0
	Socket messages received: 0
	Signals delivered: 0
	Page size (bytes): 4096
	Exit status: 0
