2
/home/gem5/gem5_new/ext/CMSpec/CMSpec/test/myTests/tc1_l1l2_llc_2.xml
Global frequency set at 1000000000000 ticks per second
build/X86/mem/dram_interface.cc:690: warn: DRAM device capacity (8192 Mbytes) does not match the address range assigned (4096 Mbytes)
simpleCache
DEBUG COH Protocol Name in XML header: MSI
/home/gem5/gem5_new/ext/CMSpec/CMSpec/test/myTests/tc1_l1l2_llc_2.xml
FSM path: /home/gem5/gem5_new/ext/CMSpec/CMSpec/Protocols_FSM/
simpleCache
build/X86/mem/coherent_xbar.cc:140: warn: CoherentXBar board.cache_hierarchy.membus has no snooping ports attached!
0: board.remote_gdb: listening for remote gdb on port 7000
gem5 Simulator System.  https://www.gem5.org
gem5 is copyrighted software; use the --copyright option for details.

gem5 version 22.1.0.0
gem5 compiled Jun 16 2024 22:09:04
gem5 started Jun 24 2024 04:58:08
gem5 executing on gem5-VirtualBox, pid 10012
command line: ./build/X86/gem5.debug /home/gem5/gem5_new/configs/mytest2/hello.py -f /home/gem5/gem5_new/ext/CMSpec/CMSpec/test/myTests/tc1_l1l2_llc_2.xml -c 2 -b RADIX -m Octopus

warn: The simulate package is still in a beta state. The gem5 project does not guarantee the APIs within this package will remain consistent across upcoming releases.
warn: No dot file generated. Please install pydot to generate the dot file and pdf.
build/X86/sim/simulate.cc:192: info: Entering event queue @ 0.  Starting simulation...
build/X86/arch/x86/cpuid.cc:180: warn: x86 cpuid family 0x0000: unimplemented function 13
build/X86/sim/syscall_emul.cc:74: warn: ignoring syscall set_robust_list(...)
build/X86/sim/syscall_emul.cc:85: warn: ignoring syscall rt_sigaction(...)
      (further warnings will be suppressed)
build/X86/sim/syscall_emul.cc:85: warn: ignoring syscall rt_sigprocmask(...)
      (further warnings will be suppressed)
build/X86/sim/mem_state.cc:443: info: Increasing stack size by one page.
build/X86/sim/syscall_emul.hh:1016: warn: readlink() called on '/proc/self/exe' may yield unexpected results in various settings.
      Returning '/home/gem5/splash/splash2/codes/kernels/radix/RADIX'
build/X86/sim/syscall_emul.cc:74: warn: ignoring syscall mprotect(...)

Integer Radix Sort
     262144 Keys
     2 Processors
     Radix = 1024
     Max key = 524288

build/X86/sim/syscall_emul.cc:74: warn: ignoring syscall mprotect(...)
build/X86/sim/power_state.cc:105: warn: PowerState: Already in the requested power state, request ignored
build/X86/sim/syscall_emul.cc:74: warn: ignoring syscall set_robust_list(...)
build/X86/sim/syscall_emul.cc:74: warn: ignoring syscall mprotect(...)
build/X86/sim/syscall_emul.cc:74: warn: ignoring syscall madvise(...)

                 PROCESS STATISTICS
               Total            Rank            Sort
 Proc          Time             Time            Time
    0          19637            9528           10095

                 TIMING INFORMATION
Start time                        : 1000000000000028
Initialization finish time        : 1000000000032083
Overall finish time               : 1000000000051720
Total time with initialization    :            51692
Total time without initialization :            19637

	Command being timed: "./build/X86/gem5.debug /home/gem5/gem5_new/configs/mytest2/hello.py -f /home/gem5/gem5_new/ext/CMSpec/CMSpec/test/myTests/tc1_l1l2_llc_2.xml -c 2 -b RADIX -m Octopus"
	User time (seconds): 8185.38
	System time (seconds): 0.28
	Percent of CPU this job got: 99%
	Elapsed (wall clock) time (h:mm:ss or m:ss): 2:16:26
	Average shared text size (kbytes): 0
	Average unshared data size (kbytes): 0
	Average stack size (kbytes): 0
	Average total size (kbytes): 0
	Maximum resident set size (kbytes): 361464
	Average resident set size (kbytes): 0
	Major (requiring I/O) page faults: 0
	Minor (reclaiming a frame) page faults: 78186
	Voluntary context switches: 42
	Involuntary context switches: 57128
	Swaps: 0
	File system inputs: 0
	File system outputs: 808
	Socket messages sent: 0
	Socket messages received: 0
	Signals delivered: 0
	Page size (bytes): 4096
	Exit status: 0
4
/home/gem5/gem5_new/ext/CMSpec/CMSpec/test/myTests/tc1_l1l2_llc_4.xml
Global frequency set at 1000000000000 ticks per second
build/X86/mem/dram_interface.cc:690: warn: DRAM device capacity (8192 Mbytes) does not match the address range assigned (4096 Mbytes)
simpleCache
DEBUG COH Protocol Name in XML header: MSI
/home/gem5/gem5_new/ext/CMSpec/CMSpec/test/myTests/tc1_l1l2_llc_4.xml
FSM path: /home/gem5/gem5_new/ext/CMSpec/CMSpec/Protocols_FSM/
simpleCache
simpleCache
simpleCache
build/X86/mem/coherent_xbar.cc:140: warn: CoherentXBar board.cache_hierarchy.membus has no snooping ports attached!
0: board.remote_gdb: listening for remote gdb on port 7000
gem5 Simulator System.  https://www.gem5.org
gem5 is copyrighted software; use the --copyright option for details.

gem5 version 22.1.0.0
gem5 compiled Jun 16 2024 22:09:04
gem5 started Jun 24 2024 07:14:34
gem5 executing on gem5-VirtualBox, pid 10258
command line: ./build/X86/gem5.debug /home/gem5/gem5_new/configs/mytest2/hello.py -f /home/gem5/gem5_new/ext/CMSpec/CMSpec/test/myTests/tc1_l1l2_llc_4.xml -c 4 -b RADIX -m Octopus

warn: The simulate package is still in a beta state. The gem5 project does not guarantee the APIs within this package will remain consistent across upcoming releases.
warn: No dot file generated. Please install pydot to generate the dot file and pdf.
build/X86/sim/simulate.cc:192: info: Entering event queue @ 0.  Starting simulation...
build/X86/arch/x86/cpuid.cc:180: warn: x86 cpuid family 0x0000: unimplemented function 13
build/X86/sim/syscall_emul.cc:74: warn: ignoring syscall set_robust_list(...)
build/X86/sim/syscall_emul.cc:85: warn: ignoring syscall rt_sigaction(...)
      (further warnings will be suppressed)
build/X86/sim/syscall_emul.cc:85: warn: ignoring syscall rt_sigprocmask(...)
      (further warnings will be suppressed)
build/X86/sim/mem_state.cc:443: info: Increasing stack size by one page.
build/X86/sim/syscall_emul.hh:1016: warn: readlink() called on '/proc/self/exe' may yield unexpected results in various settings.
      Returning '/home/gem5/splash/splash2/codes/kernels/radix/RADIX'
build/X86/sim/syscall_emul.cc:74: warn: ignoring syscall mprotect(...)

Integer Radix Sort
     262144 Keys
     4 Processors
     Radix = 1024
     Max key = 524288

build/X86/sim/syscall_emul.cc:74: warn: ignoring syscall mprotect(...)
build/X86/sim/power_state.cc:105: warn: PowerState: Already in the requested power state, request ignored
build/X86/sim/syscall_emul.cc:74: warn: ignoring syscall set_robust_list(...)
build/X86/sim/syscall_emul.cc:74: warn: ignoring syscall mprotect(...)
build/X86/sim/syscall_emul.cc:74: warn: ignoring syscall mprotect(...)
build/X86/sim/syscall_emul.cc:74: warn: ignoring syscall set_robust_list(...)
build/X86/sim/syscall_emul.cc:74: warn: ignoring syscall mprotect(...)
build/X86/sim/syscall_emul.cc:74: warn: ignoring syscall mprotect(...)
build/X86/sim/syscall_emul.cc:74: warn: ignoring syscall set_robust_list(...)
build/X86/sim/syscall_emul.cc:74: warn: ignoring syscall mprotect(...)
build/X86/sim/process.cc:333: warn: Process::allocateMem: addr 0x7ffff7448000 already mapped
build/X86/sim/syscall_emul.cc:74: warn: ignoring syscall madvise(...)
build/X86/sim/syscall_emul.cc:74: warn: ignoring syscall madvise(...)
build/X86/sim/syscall_emul.cc:74: warn: ignoring syscall madvise(...)

                 PROCESS STATISTICS
               Total            Rank            Sort
 Proc          Time             Time            Time
    0          10097            4973            5096

                 TIMING INFORMATION
Start time                        : 1000000000000028
Initialization finish time        : 1000000000016100
Overall finish time               : 1000000000026197
Total time with initialization    :            26169
Total time without initialization :            10097

	Command being timed: "./build/X86/gem5.debug /home/gem5/gem5_new/configs/mytest2/hello.py -f /home/gem5/gem5_new/ext/CMSpec/CMSpec/test/myTests/tc1_l1l2_llc_4.xml -c 4 -b RADIX -m Octopus"
	User time (seconds): 7881.27
	System time (seconds): 0.26
	Percent of CPU this job got: 99%
	Elapsed (wall clock) time (h:mm:ss or m:ss): 2:11:22
	Average shared text size (kbytes): 0
	Average unshared data size (kbytes): 0
	Average stack size (kbytes): 0
	Average total size (kbytes): 0
	Maximum resident set size (kbytes): 392484
	Average resident set size (kbytes): 0
	Major (requiring I/O) page faults: 0
	Minor (reclaiming a frame) page faults: 85595
	Voluntary context switches: 41
	Involuntary context switches: 57941
	Swaps: 0
	File system inputs: 0
	File system outputs: 1320
	Socket messages sent: 0
	Socket messages received: 0
	Signals delivered: 0
	Page size (bytes): 4096
	Exit status: 0
8
/home/gem5/gem5_new/ext/CMSpec/CMSpec/test/myTests/tc1_l1l2_llc_8.xml
Global frequency set at 1000000000000 ticks per second
build/X86/mem/dram_interface.cc:690: warn: DRAM device capacity (8192 Mbytes) does not match the address range assigned (4096 Mbytes)
simpleCache
DEBUG COH Protocol Name in XML header: MSI
/home/gem5/gem5_new/ext/CMSpec/CMSpec/test/myTests/tc1_l1l2_llc_8.xml
FSM path: /home/gem5/gem5_new/ext/CMSpec/CMSpec/Protocols_FSM/
simpleCache
simpleCache
simpleCache
simpleCache
simpleCache
simpleCache
simpleCache
build/X86/mem/coherent_xbar.cc:140: warn: CoherentXBar board.cache_hierarchy.membus has no snooping ports attached!
0: board.remote_gdb: listening for remote gdb on port 7000
gem5 Simulator System.  https://www.gem5.org
gem5 is copyrighted software; use the --copyright option for details.

gem5 version 22.1.0.0
gem5 compiled Jun 16 2024 22:09:04
gem5 started Jun 24 2024 09:25:57
gem5 executing on gem5-VirtualBox, pid 10902
command line: ./build/X86/gem5.debug /home/gem5/gem5_new/configs/mytest2/hello.py -f /home/gem5/gem5_new/ext/CMSpec/CMSpec/test/myTests/tc1_l1l2_llc_8.xml -c 8 -b RADIX -m Octopus

warn: The simulate package is still in a beta state. The gem5 project does not guarantee the APIs within this package will remain consistent across upcoming releases.
warn: No dot file generated. Please install pydot to generate the dot file and pdf.
build/X86/sim/simulate.cc:192: info: Entering event queue @ 0.  Starting simulation...
build/X86/arch/x86/cpuid.cc:180: warn: x86 cpuid family 0x0000: unimplemented function 13
build/X86/sim/syscall_emul.cc:74: warn: ignoring syscall set_robust_list(...)
build/X86/sim/syscall_emul.cc:85: warn: ignoring syscall rt_sigaction(...)
      (further warnings will be suppressed)
build/X86/sim/syscall_emul.cc:85: warn: ignoring syscall rt_sigprocmask(...)
      (further warnings will be suppressed)
build/X86/sim/mem_state.cc:443: info: Increasing stack size by one page.
build/X86/sim/syscall_emul.hh:1016: warn: readlink() called on '/proc/self/exe' may yield unexpected results in various settings.
      Returning '/home/gem5/splash/splash2/codes/kernels/radix/RADIX'
build/X86/sim/syscall_emul.cc:74: warn: ignoring syscall mprotect(...)

Integer Radix Sort
     262144 Keys
     8 Processors
     Radix = 1024
     Max key = 524288

build/X86/sim/syscall_emul.cc:74: warn: ignoring syscall mprotect(...)
build/X86/sim/power_state.cc:105: warn: PowerState: Already in the requested power state, request ignored
build/X86/sim/syscall_emul.cc:74: warn: ignoring syscall set_robust_list(...)
build/X86/sim/syscall_emul.cc:74: warn: ignoring syscall mprotect(...)
build/X86/sim/syscall_emul.cc:74: warn: ignoring syscall mprotect(...)
build/X86/sim/syscall_emul.cc:74: warn: ignoring syscall set_robust_list(...)
build/X86/sim/syscall_emul.cc:74: warn: ignoring syscall mprotect(...)
build/X86/sim/syscall_emul.cc:74: warn: ignoring syscall mprotect(...)
build/X86/sim/syscall_emul.cc:74: warn: ignoring syscall set_robust_list(...)
build/X86/sim/syscall_emul.cc:74: warn: ignoring syscall mprotect(...)
build/X86/sim/syscall_emul.cc:74: warn: ignoring syscall mprotect(...)
build/X86/sim/syscall_emul.cc:74: warn: ignoring syscall set_robust_list(...)
build/X86/sim/syscall_emul.cc:74: warn: ignoring syscall mprotect(...)
build/X86/sim/syscall_emul.cc:74: warn: ignoring syscall mprotect(...)
build/X86/sim/syscall_emul.cc:74: warn: ignoring syscall set_robust_list(...)
build/X86/sim/syscall_emul.cc:74: warn: ignoring syscall mprotect(...)
build/X86/sim/syscall_emul.cc:74: warn: ignoring syscall mprotect(...)
build/X86/sim/syscall_emul.cc:74: warn: ignoring syscall set_robust_list(...)
build/X86/sim/syscall_emul.cc:74: warn: ignoring syscall mprotect(...)
build/X86/sim/syscall_emul.cc:74: warn: ignoring syscall mprotect(...)
build/X86/sim/syscall_emul.cc:74: warn: ignoring syscall set_robust_list(...)
build/X86/sim/syscall_emul.cc:74: warn: ignoring syscall mprotect(...)
build/X86/sim/process.cc:333: warn: Process::allocateMem: addr 0x7ffff7575000 already mapped
build/X86/sim/process.cc:333: warn: Process::allocateMem: addr 0x7ffff73d1000 already mapped
build/X86/sim/process.cc:333: warn: Process::allocateMem: addr 0x7ffff74d0000 already mapped
build/X86/sim/process.cc:333: warn: Process::allocateMem: addr 0x7ffff7439000 already mapped
build/X86/sim/process.cc:333: warn: Process::allocateMem: addr 0x7ffff752f000 already mapped
build/X86/sim/process.cc:333: warn: Process::allocateMem: addr 0x7ffff739c000 already mapped
build/X86/sim/process.cc:333: warn: Process::allocateMem: addr 0x7ffff7535000 already mapped
build/X86/sim/process.cc:333: warn: Process::allocateMem: addr 0x7ffff73de000 already mapped
build/X86/sim/process.cc:333: warn: Process::allocateMem: addr 0x7ffff7412000 already mapped
build/X86/sim/process.cc:333: warn: Process::allocateMem: addr 0x7ffff756c000 already mapped
build/X86/sim/process.cc:333: warn: Process::allocateMem: addr 0x7ffff7554000 already mapped
build/X86/sim/process.cc:333: warn: Process::allocateMem: addr 0x7ffff74c9000 already mapped
build/X86/sim/syscall_emul.cc:74: warn: ignoring syscall madvise(...)
build/X86/sim/syscall_emul.cc:74: warn: ignoring syscall madvise(...)
build/X86/sim/syscall_emul.cc:74: warn: ignoring syscall madvise(...)
build/X86/sim/syscall_emul.cc:74: warn: ignoring syscall madvise(...)
build/X86/sim/syscall_emul.cc:74: warn: ignoring syscall madvise(...)
build/X86/sim/syscall_emul.cc:74: warn: ignoring syscall madvise(...)
build/X86/sim/syscall_emul.cc:74: warn: ignoring syscall madvise(...)

                 PROCESS STATISTICS
               Total            Rank            Sort
 Proc          Time             Time            Time
    0           5388            2739            2605

                 TIMING INFORMATION
Start time                        : 1000000000000028
Initialization finish time        : 1000000000008090
Overall finish time               : 1000000000013478
Total time with initialization    :            13450
Total time without initialization :             5388

	Command being timed: "./build/X86/gem5.debug /home/gem5/gem5_new/configs/mytest2/hello.py -f /home/gem5/gem5_new/ext/CMSpec/CMSpec/test/myTests/tc1_l1l2_llc_8.xml -c 8 -b RADIX -m Octopus"
	User time (seconds): 7768.39
	System time (seconds): 0.31
	Percent of CPU this job got: 99%
	Elapsed (wall clock) time (h:mm:ss or m:ss): 2:09:29
	Average shared text size (kbytes): 0
	Average unshared data size (kbytes): 0
	Average stack size (kbytes): 0
	Average total size (kbytes): 0
	Maximum resident set size (kbytes): 455512
	Average resident set size (kbytes): 0
	Major (requiring I/O) page faults: 0
	Minor (reclaiming a frame) page faults: 100304
	Voluntary context switches: 42
	Involuntary context switches: 59497
	Swaps: 0
	File system inputs: 0
	File system outputs: 2416
	Socket messages sent: 0
	Socket messages received: 0
	Signals delivered: 0
	Page size (bytes): 4096
	Exit status: 0
16
/home/gem5/gem5_new/ext/CMSpec/CMSpec/test/myTests/tc1_l1l2_llc_16.xml
Global frequency set at 1000000000000 ticks per second
build/X86/mem/dram_interface.cc:690: warn: DRAM device capacity (8192 Mbytes) does not match the address range assigned (4096 Mbytes)
simpleCache
DEBUG COH Protocol Name in XML header: MSI
/home/gem5/gem5_new/ext/CMSpec/CMSpec/test/myTests/tc1_l1l2_llc_16.xml
FSM path: /home/gem5/gem5_new/ext/CMSpec/CMSpec/Protocols_FSM/
simpleCache
simpleCache
simpleCache
simpleCache
simpleCache
simpleCache
simpleCache
simpleCache
simpleCache
simpleCache
simpleCache
simpleCache
simpleCache
simpleCache
simpleCache
build/X86/mem/coherent_xbar.cc:140: warn: CoherentXBar board.cache_hierarchy.membus has no snooping ports attached!
0: board.remote_gdb: listening for remote gdb on port 7000
gem5 Simulator System.  https://www.gem5.org
gem5 is copyrighted software; use the --copyright option for details.

gem5 version 22.1.0.0
gem5 compiled Jun 16 2024 22:09:04
gem5 started Jun 24 2024 11:35:26
gem5 executing on gem5-VirtualBox, pid 10967
command line: ./build/X86/gem5.debug /home/gem5/gem5_new/configs/mytest2/hello.py -f /home/gem5/gem5_new/ext/CMSpec/CMSpec/test/myTests/tc1_l1l2_llc_16.xml -c 16 -b RADIX -m Octopus

warn: The simulate package is still in a beta state. The gem5 project does not guarantee the APIs within this package will remain consistent across upcoming releases.
warn: No dot file generated. Please install pydot to generate the dot file and pdf.
build/X86/sim/simulate.cc:192: info: Entering event queue @ 0.  Starting simulation...
build/X86/arch/x86/cpuid.cc:180: warn: x86 cpuid family 0x0000: unimplemented function 13
build/X86/sim/syscall_emul.cc:74: warn: ignoring syscall set_robust_list(...)
build/X86/sim/syscall_emul.cc:85: warn: ignoring syscall rt_sigaction(...)
      (further warnings will be suppressed)
build/X86/sim/syscall_emul.cc:85: warn: ignoring syscall rt_sigprocmask(...)
      (further warnings will be suppressed)
build/X86/sim/mem_state.cc:443: info: Increasing stack size by one page.
build/X86/sim/syscall_emul.hh:1016: warn: readlink() called on '/proc/self/exe' may yield unexpected results in various settings.
      Returning '/home/gem5/splash/splash2/codes/kernels/radix/RADIX'
build/X86/sim/syscall_emul.cc:74: warn: ignoring syscall mprotect(...)

Integer Radix Sort
     262144 Keys
     16 Processors
     Radix = 1024
     Max key = 524288

build/X86/sim/syscall_emul.cc:74: warn: ignoring syscall mprotect(...)
build/X86/sim/power_state.cc:105: warn: PowerState: Already in the requested power state, request ignored
build/X86/sim/syscall_emul.cc:74: warn: ignoring syscall set_robust_list(...)
build/X86/sim/syscall_emul.cc:74: warn: ignoring syscall mprotect(...)
build/X86/sim/syscall_emul.cc:74: warn: ignoring syscall mprotect(...)
build/X86/sim/syscall_emul.cc:74: warn: ignoring syscall set_robust_list(...)
build/X86/sim/syscall_emul.cc:74: warn: ignoring syscall mprotect(...)
build/X86/sim/syscall_emul.cc:74: warn: ignoring syscall mprotect(...)
build/X86/sim/syscall_emul.cc:74: warn: ignoring syscall set_robust_list(...)
build/X86/sim/syscall_emul.cc:74: warn: ignoring syscall mprotect(...)
build/X86/sim/syscall_emul.cc:74: warn: ignoring syscall mprotect(...)
build/X86/sim/syscall_emul.cc:74: warn: ignoring syscall set_robust_list(...)
build/X86/sim/syscall_emul.cc:74: warn: ignoring syscall mprotect(...)
build/X86/sim/syscall_emul.cc:74: warn: ignoring syscall mprotect(...)
build/X86/sim/syscall_emul.cc:74: warn: ignoring syscall set_robust_list(...)
build/X86/sim/syscall_emul.cc:74: warn: ignoring syscall mprotect(...)
build/X86/sim/syscall_emul.cc:74: warn: ignoring syscall mprotect(...)
build/X86/sim/syscall_emul.cc:74: warn: ignoring syscall set_robust_list(...)
build/X86/sim/syscall_emul.cc:74: warn: ignoring syscall mprotect(...)
build/X86/sim/syscall_emul.cc:74: warn: ignoring syscall mprotect(...)
build/X86/sim/syscall_emul.cc:74: warn: ignoring syscall set_robust_list(...)
build/X86/sim/syscall_emul.cc:74: warn: ignoring syscall mprotect(...)
build/X86/sim/syscall_emul.cc:74: warn: ignoring syscall mprotect(...)
build/X86/sim/syscall_emul.cc:74: warn: ignoring syscall set_robust_list(...)
build/X86/sim/syscall_emul.cc:74: warn: ignoring syscall mprotect(...)
build/X86/sim/syscall_emul.cc:74: warn: ignoring syscall mprotect(...)
build/X86/sim/syscall_emul.cc:74: warn: ignoring syscall set_robust_list(...)
build/X86/sim/syscall_emul.cc:74: warn: ignoring syscall mprotect(...)
build/X86/sim/syscall_emul.cc:74: warn: ignoring syscall set_robust_list(...)
build/X86/sim/syscall_emul.cc:74: warn: ignoring syscall mprotect(...)
build/X86/sim/syscall_emul.cc:74: warn: ignoring syscall mprotect(...)
build/X86/sim/syscall_emul.cc:74: warn: ignoring syscall set_robust_list(...)
build/X86/sim/syscall_emul.cc:74: warn: ignoring syscall mprotect(...)
build/X86/sim/syscall_emul.cc:74: warn: ignoring syscall mprotect(...)
build/X86/sim/syscall_emul.cc:74: warn: ignoring syscall mprotect(...)
build/X86/sim/syscall_emul.cc:74: warn: ignoring syscall set_robust_list(...)
build/X86/sim/syscall_emul.cc:74: warn: ignoring syscall mprotect(...)
build/X86/sim/syscall_emul.cc:74: warn: ignoring syscall mprotect(...)
build/X86/sim/syscall_emul.cc:74: warn: ignoring syscall set_robust_list(...)
build/X86/sim/syscall_emul.cc:74: warn: ignoring syscall mprotect(...)
build/X86/sim/syscall_emul.cc:74: warn: ignoring syscall mprotect(...)
build/X86/sim/syscall_emul.cc:74: warn: ignoring syscall set_robust_list(...)
build/X86/sim/syscall_emul.cc:74: warn: ignoring syscall mprotect(...)
build/X86/sim/syscall_emul.cc:74: warn: ignoring syscall mprotect(...)
build/X86/sim/syscall_emul.cc:74: warn: ignoring syscall set_robust_list(...)
build/X86/sim/syscall_emul.cc:74: warn: ignoring syscall mprotect(...)
build/X86/sim/process.cc:333: warn: Process::allocateMem: addr 0x7ffff7565000 already mapped
build/X86/sim/process.cc:333: warn: Process::allocateMem: addr 0x7ffff7387000 already mapped
build/X86/sim/process.cc:333: warn: Process::allocateMem: addr 0x7ffff755e000 already mapped
build/X86/sim/process.cc:333: warn: Process::allocateMem: addr 0x7ffff7532000 already mapped
build/X86/sim/process.cc:333: warn: Process::allocateMem: addr 0x7ffff74d0000 already mapped
build/X86/sim/process.cc:333: warn: Process::allocateMem: addr 0x7ffff7465000 already mapped
build/X86/sim/process.cc:333: warn: Process::allocateMem: addr 0x7ffff74b2000 already mapped
build/X86/sim/process.cc:333: warn: Process::allocateMem: addr 0x7ffff74e6000 already mapped
build/X86/sim/process.cc:333: warn: Process::allocateMem: addr 0x7ffff746e000 already mapped
build/X86/sim/process.cc:333: warn: Process::allocateMem: addr 0x7ffff7555000 already mapped
build/X86/sim/process.cc:333: warn: Process::allocateMem: addr 0x7ffff7497000 already mapped
build/X86/sim/process.cc:333: warn: Process::allocateMem: addr 0x7ffff737e000 already mapped
build/X86/sim/process.cc:333: warn: Process::allocateMem: addr 0x7ffff750f000 already mapped
build/X86/sim/process.cc:333: warn: Process::allocateMem: addr 0x7ffff7460000 already mapped
build/X86/sim/process.cc:333: warn: Process::allocateMem: addr 0x7ffff743d000 already mapped
build/X86/sim/process.cc:333: warn: Process::allocateMem: addr 0x7ffff73a7000 already mapped
build/X86/sim/process.cc:333: warn: Process::allocateMem: addr 0x7ffff7430000 already mapped
build/X86/sim/syscall_emul.cc:74: warn: ignoring syscall madvise(...)
build/X86/sim/syscall_emul.cc:74: warn: ignoring syscall madvise(...)
build/X86/sim/syscall_emul.cc:74: warn: ignoring syscall madvise(...)
build/X86/sim/syscall_emul.cc:74: warn: ignoring syscall madvise(...)
build/X86/sim/syscall_emul.cc:74: warn: ignoring syscall madvise(...)
build/X86/sim/syscall_emul.cc:74: warn: ignoring syscall madvise(...)
build/X86/sim/syscall_emul.cc:74: warn: ignoring syscall madvise(...)
build/X86/sim/syscall_emul.cc:74: warn: ignoring syscall madvise(...)
build/X86/sim/syscall_emul.cc:74: warn: ignoring syscall madvise(...)
build/X86/sim/syscall_emul.cc:74: warn: ignoring syscall madvise(...)
build/X86/sim/syscall_emul.cc:74: warn: ignoring syscall madvise(...)
build/X86/sim/syscall_emul.cc:74: warn: ignoring syscall madvise(...)
build/X86/sim/syscall_emul.cc:74: warn: ignoring syscall madvise(...)
build/X86/sim/syscall_emul.cc:74: warn: ignoring syscall madvise(...)
build/X86/sim/syscall_emul.cc:74: warn: ignoring syscall madvise(...)

                 PROCESS STATISTICS
               Total            Rank            Sort
 Proc          Time             Time            Time
    0           4136            1705            2357

                 TIMING INFORMATION
Start time                        : 1000000000000028
Initialization finish time        : 1000000000004147
Overall finish time               : 1000000000008283
Total time with initialization    :             8255
Total time without initialization :             4136

	Command being timed: "./build/X86/gem5.debug /home/gem5/gem5_new/configs/mytest2/hello.py -f /home/gem5/gem5_new/ext/CMSpec/CMSpec/test/myTests/tc1_l1l2_llc_16.xml -c 16 -b RADIX -m Octopus"
	User time (seconds): 8188.42
	System time (seconds): 0.43
	Percent of CPU this job got: 99%
	Elapsed (wall clock) time (h:mm:ss or m:ss): 2:16:29
	Average shared text size (kbytes): 0
	Average unshared data size (kbytes): 0
	Average stack size (kbytes): 0
	Average total size (kbytes): 0
	Maximum resident set size (kbytes): 590128
	Average resident set size (kbytes): 0
	Major (requiring I/O) page faults: 0
	Minor (reclaiming a frame) page faults: 131877
	Voluntary context switches: 42
	Involuntary context switches: 63541
	Swaps: 0
	File system inputs: 0
	File system outputs: 4584
	Socket messages sent: 0
	Socket messages received: 0
	Signals delivered: 0
	Page size (bytes): 4096
	Exit status: 0
32
/home/gem5/gem5_new/ext/CMSpec/CMSpec/test/myTests/tc1_l1l2_llc_32.xml
Global frequency set at 1000000000000 ticks per second
build/X86/mem/dram_interface.cc:690: warn: DRAM device capacity (8192 Mbytes) does not match the address range assigned (4096 Mbytes)
simpleCache
DEBUG COH Protocol Name in XML header: MSI
/home/gem5/gem5_new/ext/CMSpec/CMSpec/test/myTests/tc1_l1l2_llc_32.xml
FSM path: /home/gem5/gem5_new/ext/CMSpec/CMSpec/Protocols_FSM/
simpleCache
simpleCache
simpleCache
simpleCache
simpleCache
simpleCache
simpleCache
simpleCache
simpleCache
simpleCache
simpleCache
simpleCache
simpleCache
simpleCache
simpleCache
simpleCache
simpleCache
simpleCache
simpleCache
simpleCache
simpleCache
simpleCache
simpleCache
simpleCache
simpleCache
simpleCache
simpleCache
simpleCache
simpleCache
simpleCache
simpleCache
build/X86/mem/coherent_xbar.cc:140: warn: CoherentXBar board.cache_hierarchy.membus has no snooping ports attached!
0: board.remote_gdb: listening for remote gdb on port 7000
gem5 Simulator System.  https://www.gem5.org
gem5 is copyrighted software; use the --copyright option for details.

gem5 version 22.1.0.0
gem5 compiled Jun 16 2024 22:09:04
gem5 started Jun 24 2024 13:51:56
gem5 executing on gem5-VirtualBox, pid 11057
command line: ./build/X86/gem5.debug /home/gem5/gem5_new/configs/mytest2/hello.py -f /home/gem5/gem5_new/ext/CMSpec/CMSpec/test/myTests/tc1_l1l2_llc_32.xml -c 32 -b RADIX -m Octopus

warn: The simulate package is still in a beta state. The gem5 project does not guarantee the APIs within this package will remain consistent across upcoming releases.
warn: No dot file generated. Please install pydot to generate the dot file and pdf.
build/X86/sim/simulate.cc:192: info: Entering event queue @ 0.  Starting simulation...
build/X86/arch/x86/cpuid.cc:180: warn: x86 cpuid family 0x0000: unimplemented function 13
build/X86/sim/syscall_emul.cc:74: warn: ignoring syscall set_robust_list(...)
build/X86/sim/syscall_emul.cc:85: warn: ignoring syscall rt_sigaction(...)
      (further warnings will be suppressed)
build/X86/sim/syscall_emul.cc:85: warn: ignoring syscall rt_sigprocmask(...)
      (further warnings will be suppressed)
build/X86/sim/mem_state.cc:443: info: Increasing stack size by one page.
build/X86/sim/syscall_emul.hh:1016: warn: readlink() called on '/proc/self/exe' may yield unexpected results in various settings.
      Returning '/home/gem5/splash/splash2/codes/kernels/radix/RADIX'
build/X86/sim/syscall_emul.cc:74: warn: ignoring syscall mprotect(...)

Integer Radix Sort
     262144 Keys
     32 Processors
     Radix = 1024
     Max key = 524288

build/X86/sim/syscall_emul.cc:74: warn: ignoring syscall mprotect(...)
build/X86/sim/power_state.cc:105: warn: PowerState: Already in the requested power state, request ignored
build/X86/sim/syscall_emul.cc:74: warn: ignoring syscall set_robust_list(...)
build/X86/sim/syscall_emul.cc:74: warn: ignoring syscall mprotect(...)
build/X86/sim/syscall_emul.cc:74: warn: ignoring syscall mprotect(...)
build/X86/sim/syscall_emul.cc:74: warn: ignoring syscall set_robust_list(...)
build/X86/sim/syscall_emul.cc:74: warn: ignoring syscall mprotect(...)
build/X86/sim/syscall_emul.cc:74: warn: ignoring syscall mprotect(...)
build/X86/sim/syscall_emul.cc:74: warn: ignoring syscall set_robust_list(...)
build/X86/sim/syscall_emul.cc:74: warn: ignoring syscall mprotect(...)
build/X86/sim/syscall_emul.cc:74: warn: ignoring syscall mprotect(...)
build/X86/sim/syscall_emul.cc:74: warn: ignoring syscall set_robust_list(...)
build/X86/sim/syscall_emul.cc:74: warn: ignoring syscall mprotect(...)
build/X86/sim/syscall_emul.cc:74: warn: ignoring syscall mprotect(...)
build/X86/sim/syscall_emul.cc:74: warn: ignoring syscall set_robust_list(...)
build/X86/sim/syscall_emul.cc:74: warn: ignoring syscall mprotect(...)
build/X86/sim/syscall_emul.cc:74: warn: ignoring syscall mprotect(...)
build/X86/sim/syscall_emul.cc:74: warn: ignoring syscall set_robust_list(...)
build/X86/sim/syscall_emul.cc:74: warn: ignoring syscall mprotect(...)
build/X86/sim/syscall_emul.cc:74: warn: ignoring syscall mprotect(...)
build/X86/sim/syscall_emul.cc:74: warn: ignoring syscall set_robust_list(...)
build/X86/sim/syscall_emul.cc:74: warn: ignoring syscall mprotect(...)
build/X86/sim/syscall_emul.cc:74: warn: ignoring syscall mprotect(...)
build/X86/sim/syscall_emul.cc:74: warn: ignoring syscall set_robust_list(...)
build/X86/sim/syscall_emul.cc:74: warn: ignoring syscall mprotect(...)
build/X86/sim/syscall_emul.cc:74: warn: ignoring syscall mprotect(...)
build/X86/sim/syscall_emul.cc:74: warn: ignoring syscall set_robust_list(...)
build/X86/sim/syscall_emul.cc:74: warn: ignoring syscall mprotect(...)
build/X86/sim/syscall_emul.cc:74: warn: ignoring syscall set_robust_list(...)
build/X86/sim/syscall_emul.cc:74: warn: ignoring syscall mprotect(...)
build/X86/sim/syscall_emul.cc:74: warn: ignoring syscall mprotect(...)
build/X86/sim/syscall_emul.cc:74: warn: ignoring syscall mprotect(...)
build/X86/sim/syscall_emul.cc:74: warn: ignoring syscall set_robust_list(...)
build/X86/sim/syscall_emul.cc:74: warn: ignoring syscall mprotect(...)
build/X86/sim/syscall_emul.cc:74: warn: ignoring syscall mprotect(...)
build/X86/sim/syscall_emul.cc:74: warn: ignoring syscall set_robust_list(...)
build/X86/sim/syscall_emul.cc:74: warn: ignoring syscall mprotect(...)
build/X86/sim/syscall_emul.cc:74: warn: ignoring syscall mprotect(...)
build/X86/sim/syscall_emul.cc:74: warn: ignoring syscall set_robust_list(...)
build/X86/sim/syscall_emul.cc:74: warn: ignoring syscall mprotect(...)
build/X86/sim/syscall_emul.cc:74: warn: ignoring syscall mprotect(...)
build/X86/sim/syscall_emul.cc:74: warn: ignoring syscall set_robust_list(...)
build/X86/sim/syscall_emul.cc:74: warn: ignoring syscall mprotect(...)
build/X86/sim/syscall_emul.cc:74: warn: ignoring syscall mprotect(...)
build/X86/sim/syscall_emul.cc:74: warn: ignoring syscall set_robust_list(...)
build/X86/sim/syscall_emul.cc:74: warn: ignoring syscall mprotect(...)
build/X86/sim/syscall_emul.cc:74: warn: ignoring syscall mprotect(...)
build/X86/sim/syscall_emul.cc:74: warn: ignoring syscall set_robust_list(...)
build/X86/sim/syscall_emul.cc:74: warn: ignoring syscall mprotect(...)
build/X86/sim/syscall_emul.cc:74: warn: ignoring syscall mprotect(...)
build/X86/sim/syscall_emul.cc:74: warn: ignoring syscall set_robust_list(...)
build/X86/sim/syscall_emul.cc:74: warn: ignoring syscall mprotect(...)
build/X86/sim/syscall_emul.cc:74: warn: ignoring syscall mprotect(...)
build/X86/sim/syscall_emul.cc:74: warn: ignoring syscall set_robust_list(...)
build/X86/sim/syscall_emul.cc:74: warn: ignoring syscall mprotect(...)
build/X86/sim/syscall_emul.cc:74: warn: ignoring syscall mprotect(...)
build/X86/sim/syscall_emul.cc:74: warn: ignoring syscall set_robust_list(...)
build/X86/sim/syscall_emul.cc:74: warn: ignoring syscall mprotect(...)
build/X86/sim/syscall_emul.cc:74: warn: ignoring syscall mprotect(...)
build/X86/sim/syscall_emul.cc:74: warn: ignoring syscall set_robust_list(...)
build/X86/sim/syscall_emul.cc:74: warn: ignoring syscall mprotect(...)
build/X86/sim/syscall_emul.cc:74: warn: ignoring syscall mprotect(...)
build/X86/sim/syscall_emul.cc:74: warn: ignoring syscall set_robust_list(...)
build/X86/sim/syscall_emul.cc:74: warn: ignoring syscall mprotect(...)
build/X86/sim/syscall_emul.cc:74: warn: ignoring syscall mprotect(...)
build/X86/sim/syscall_emul.cc:74: warn: ignoring syscall set_robust_list(...)
build/X86/sim/syscall_emul.cc:74: warn: ignoring syscall mprotect(...)
build/X86/sim/syscall_emul.cc:74: warn: ignoring syscall mprotect(...)
build/X86/sim/syscall_emul.cc:74: warn: ignoring syscall set_robust_list(...)
build/X86/sim/syscall_emul.cc:74: warn: ignoring syscall mprotect(...)
build/X86/sim/syscall_emul.cc:74: warn: ignoring syscall mprotect(...)
build/X86/sim/syscall_emul.cc:74: warn: ignoring syscall set_robust_list(...)
build/X86/sim/syscall_emul.cc:74: warn: ignoring syscall mprotect(...)
build/X86/sim/syscall_emul.cc:74: warn: ignoring syscall mprotect(...)
build/X86/sim/syscall_emul.cc:74: warn: ignoring syscall set_robust_list(...)
build/X86/sim/syscall_emul.cc:74: warn: ignoring syscall mprotect(...)
build/X86/sim/syscall_emul.cc:74: warn: ignoring syscall mprotect(...)
build/X86/sim/syscall_emul.cc:74: warn: ignoring syscall set_robust_list(...)
build/X86/sim/syscall_emul.cc:74: warn: ignoring syscall mprotect(...)
build/X86/sim/syscall_emul.cc:74: warn: ignoring syscall mprotect(...)
build/X86/sim/syscall_emul.cc:74: warn: ignoring syscall set_robust_list(...)
build/X86/sim/syscall_emul.cc:74: warn: ignoring syscall mprotect(...)
build/X86/sim/syscall_emul.cc:74: warn: ignoring syscall mprotect(...)
build/X86/sim/syscall_emul.cc:74: warn: ignoring syscall set_robust_list(...)
build/X86/sim/syscall_emul.cc:74: warn: ignoring syscall mprotect(...)
build/X86/sim/syscall_emul.cc:74: warn: ignoring syscall mprotect(...)
build/X86/sim/syscall_emul.cc:74: warn: ignoring syscall set_robust_list(...)
build/X86/sim/syscall_emul.cc:74: warn: ignoring syscall mprotect(...)
build/X86/sim/syscall_emul.cc:74: warn: ignoring syscall mprotect(...)
build/X86/sim/syscall_emul.cc:74: warn: ignoring syscall set_robust_list(...)
build/X86/sim/syscall_emul.cc:74: warn: ignoring syscall mprotect(...)
build/X86/sim/syscall_emul.cc:74: warn: ignoring syscall mprotect(...)
build/X86/sim/syscall_emul.cc:74: warn: ignoring syscall set_robust_list(...)
build/X86/sim/syscall_emul.cc:74: warn: ignoring syscall mprotect(...)
build/X86/sim/process.cc:333: warn: Process::allocateMem: addr 0x7ffff7503000 already mapped
build/X86/sim/process.cc:333: warn: Process::allocateMem: addr 0x7ffff750d000 already mapped
build/X86/sim/process.cc:333: warn: Process::allocateMem: addr 0x7ffff7542000 already mapped
build/X86/sim/process.cc:333: warn: Process::allocateMem: addr 0x7ffff7542000 already mapped
build/X86/sim/process.cc:333: warn: Process::allocateMem: addr 0x7ffff7428000 already mapped
build/X86/sim/process.cc:333: warn: Process::allocateMem: addr 0x7ffff7470000 already mapped
build/X86/sim/process.cc:333: warn: Process::allocateMem: addr 0x7ffff7497000 already mapped
build/X86/sim/process.cc:333: warn: Process::allocateMem: addr 0x7ffff73c0000 already mapped
build/X86/sim/process.cc:333: warn: Process::allocateMem: addr 0x7ffff7393000 already mapped
build/X86/sim/process.cc:333: warn: Process::allocateMem: addr 0x7ffff7544000 already mapped
build/X86/sim/process.cc:333: warn: Process::allocateMem: addr 0x7ffff7570000 already mapped
build/X86/sim/process.cc:333: warn: Process::allocateMem: addr 0x7ffff7544000 already mapped
build/X86/sim/process.cc:333: warn: Process::allocateMem: addr 0x7ffff7486000 already mapped
build/X86/sim/process.cc:333: warn: Process::allocateMem: addr 0x7ffff73f0000 already mapped
build/X86/sim/process.cc:333: warn: Process::allocateMem: addr 0x7ffff7433000 already mapped
build/X86/sim/process.cc:333: warn: Process::allocateMem: addr 0x7ffff7528000 already mapped
build/X86/sim/syscall_emul.cc:74: warn: ignoring syscall madvise(...)
build/X86/sim/syscall_emul.cc:74: warn: ignoring syscall madvise(...)
build/X86/sim/syscall_emul.cc:74: warn: ignoring syscall madvise(...)
build/X86/sim/syscall_emul.cc:74: warn: ignoring syscall madvise(...)
build/X86/sim/syscall_emul.cc:74: warn: ignoring syscall madvise(...)
build/X86/sim/syscall_emul.cc:74: warn: ignoring syscall madvise(...)
build/X86/sim/syscall_emul.cc:74: warn: ignoring syscall madvise(...)
build/X86/sim/syscall_emul.cc:74: warn: ignoring syscall madvise(...)
build/X86/sim/syscall_emul.cc:74: warn: ignoring syscall madvise(...)
build/X86/sim/syscall_emul.cc:74: warn: ignoring syscall madvise(...)
build/X86/sim/syscall_emul.cc:74: warn: ignoring syscall madvise(...)
build/X86/sim/syscall_emul.cc:74: warn: ignoring syscall madvise(...)
build/X86/sim/syscall_emul.cc:74: warn: ignoring syscall madvise(...)
build/X86/sim/syscall_emul.cc:74: warn: ignoring syscall madvise(...)
build/X86/sim/syscall_emul.cc:74: warn: ignoring syscall madvise(...)
build/X86/sim/syscall_emul.cc:74: warn: ignoring syscall madvise(...)
build/X86/sim/syscall_emul.cc:74: warn: ignoring syscall madvise(...)
build/X86/sim/syscall_emul.cc:74: warn: ignoring syscall madvise(...)
build/X86/sim/syscall_emul.cc:74: warn: ignoring syscall madvise(...)
build/X86/sim/syscall_emul.cc:74: warn: ignoring syscall madvise(...)
build/X86/sim/syscall_emul.cc:74: warn: ignoring syscall madvise(...)
build/X86/sim/syscall_emul.cc:74: warn: ignoring syscall madvise(...)
build/X86/sim/syscall_emul.cc:74: warn: ignoring syscall madvise(...)
build/X86/sim/syscall_emul.cc:74: warn: ignoring syscall madvise(...)
build/X86/sim/syscall_emul.cc:74: warn: ignoring syscall madvise(...)
build/X86/sim/syscall_emul.cc:74: warn: ignoring syscall madvise(...)
build/X86/sim/syscall_emul.cc:74: warn: ignoring syscall madvise(...)
build/X86/sim/syscall_emul.cc:74: warn: ignoring syscall madvise(...)
build/X86/sim/syscall_emul.cc:74: warn: ignoring syscall madvise(...)
build/X86/sim/syscall_emul.cc:74: warn: ignoring syscall madvise(...)
build/X86/sim/syscall_emul.cc:74: warn: ignoring syscall madvise(...)

                 PROCESS STATISTICS
               Total            Rank            Sort
 Proc          Time             Time            Time
    0           5585            1666            3612

                 TIMING INFORMATION
Start time                        : 1000000000000028
Initialization finish time        : 1000000000002200
Overall finish time               : 1000000000007785
Total time with initialization    :             7757
Total time without initialization :             5585

	Command being timed: "./build/X86/gem5.debug /home/gem5/gem5_new/configs/mytest2/hello.py -f /home/gem5/gem5_new/ext/CMSpec/CMSpec/test/myTests/tc1_l1l2_llc_32.xml -c 32 -b RADIX -m Octopus"
	User time (seconds): 10268.92
	System time (seconds): 0.65
	Percent of CPU this job got: 99%
	Elapsed (wall clock) time (h:mm:ss or m:ss): 2:51:10
	Average shared text size (kbytes): 0
	Average unshared data size (kbytes): 0
	Average stack size (kbytes): 0
	Average total size (kbytes): 0
	Maximum resident set size (kbytes): 847664
	Average resident set size (kbytes): 0
	Major (requiring I/O) page faults: 0
	Minor (reclaiming a frame) page faults: 192491
	Voluntary context switches: 41
	Involuntary context switches: 76000
	Swaps: 0
	File system inputs: 0
	File system outputs: 8880
	Socket messages sent: 0
	Socket messages received: 0
	Signals delivered: 0
	Page size (bytes): 4096
	Exit status: 0
64
/home/gem5/gem5_new/ext/CMSpec/CMSpec/test/myTests/tc1_l1l2_llc_64.xml
Global frequency set at 1000000000000 ticks per second
build/X86/mem/dram_interface.cc:690: warn: DRAM device capacity (8192 Mbytes) does not match the address range assigned (4096 Mbytes)
simpleCache
DEBUG COH Protocol Name in XML header: MSI
/home/gem5/gem5_new/ext/CMSpec/CMSpec/test/myTests/tc1_l1l2_llc_64.xml
FSM path: /home/gem5/gem5_new/ext/CMSpec/CMSpec/Protocols_FSM/
simpleCache
simpleCache
simpleCache
simpleCache
simpleCache
simpleCache
simpleCache
simpleCache
simpleCache
simpleCache
simpleCache
simpleCache
simpleCache
simpleCache
simpleCache
simpleCache
simpleCache
simpleCache
simpleCache
simpleCache
simpleCache
simpleCache
simpleCache
simpleCache
simpleCache
simpleCache
simpleCache
simpleCache
simpleCache
simpleCache
simpleCache
simpleCache
simpleCache
simpleCache
simpleCache
simpleCache
simpleCache
simpleCache
simpleCache
simpleCache
simpleCache
simpleCache
simpleCache
simpleCache
simpleCache
simpleCache
simpleCache
simpleCache
simpleCache
simpleCache
simpleCache
simpleCache
simpleCache
simpleCache
simpleCache
simpleCache
simpleCache
simpleCache
simpleCache
simpleCache
simpleCache
simpleCache
simpleCache
build/X86/mem/coherent_xbar.cc:140: warn: CoherentXBar board.cache_hierarchy.membus has no snooping ports attached!
0: board.remote_gdb: listening for remote gdb on port 7000
gem5 Simulator System.  https://www.gem5.org
gem5 is copyrighted software; use the --copyright option for details.

gem5 version 22.1.0.0
gem5 compiled Jun 16 2024 22:09:04
gem5 started Jun 24 2024 16:43:07
gem5 executing on gem5-VirtualBox, pid 11140
command line: ./build/X86/gem5.debug /home/gem5/gem5_new/configs/mytest2/hello.py -f /home/gem5/gem5_new/ext/CMSpec/CMSpec/test/myTests/tc1_l1l2_llc_64.xml -c 64 -b RADIX -m Octopus

warn: The simulate package is still in a beta state. The gem5 project does not guarantee the APIs within this package will remain consistent across upcoming releases.
warn: No dot file generated. Please install pydot to generate the dot file and pdf.
build/X86/sim/simulate.cc:192: info: Entering event queue @ 0.  Starting simulation...
build/X86/arch/x86/cpuid.cc:180: warn: x86 cpuid family 0x0000: unimplemented function 13
build/X86/sim/syscall_emul.cc:74: warn: ignoring syscall set_robust_list(...)
build/X86/sim/syscall_emul.cc:85: warn: ignoring syscall rt_sigaction(...)
      (further warnings will be suppressed)
build/X86/sim/syscall_emul.cc:85: warn: ignoring syscall rt_sigprocmask(...)
      (further warnings will be suppressed)
build/X86/sim/mem_state.cc:443: info: Increasing stack size by one page.
build/X86/sim/syscall_emul.hh:1016: warn: readlink() called on '/proc/self/exe' may yield unexpected results in various settings.
      Returning '/home/gem5/splash/splash2/codes/kernels/radix/RADIX'
build/X86/sim/syscall_emul.cc:74: warn: ignoring syscall mprotect(...)

Integer Radix Sort
     262144 Keys
     64 Processors
     Radix = 1024
     Max key = 524288

build/X86/sim/syscall_emul.cc:74: warn: ignoring syscall mprotect(...)
build/X86/sim/power_state.cc:105: warn: PowerState: Already in the requested power state, request ignored
build/X86/sim/syscall_emul.cc:74: warn: ignoring syscall set_robust_list(...)
build/X86/sim/syscall_emul.cc:74: warn: ignoring syscall mprotect(...)
build/X86/sim/syscall_emul.cc:74: warn: ignoring syscall mprotect(...)
build/X86/sim/syscall_emul.cc:74: warn: ignoring syscall set_robust_list(...)
build/X86/sim/syscall_emul.cc:74: warn: ignoring syscall mprotect(...)
build/X86/sim/syscall_emul.cc:74: warn: ignoring syscall mprotect(...)
build/X86/sim/syscall_emul.cc:74: warn: ignoring syscall set_robust_list(...)
build/X86/sim/syscall_emul.cc:74: warn: ignoring syscall mprotect(...)
build/X86/sim/syscall_emul.cc:74: warn: ignoring syscall mprotect(...)
build/X86/sim/syscall_emul.cc:74: warn: ignoring syscall set_robust_list(...)
build/X86/sim/syscall_emul.cc:74: warn: ignoring syscall mprotect(...)
build/X86/sim/syscall_emul.cc:74: warn: ignoring syscall mprotect(...)
build/X86/sim/syscall_emul.cc:74: warn: ignoring syscall set_robust_list(...)
build/X86/sim/syscall_emul.cc:74: warn: ignoring syscall mprotect(...)
build/X86/sim/syscall_emul.cc:74: warn: ignoring syscall mprotect(...)
build/X86/sim/syscall_emul.cc:74: warn: ignoring syscall set_robust_list(...)
build/X86/sim/syscall_emul.cc:74: warn: ignoring syscall mprotect(...)
build/X86/sim/syscall_emul.cc:74: warn: ignoring syscall mprotect(...)
build/X86/sim/syscall_emul.cc:74: warn: ignoring syscall set_robust_list(...)
build/X86/sim/syscall_emul.cc:74: warn: ignoring syscall mprotect(...)
build/X86/sim/syscall_emul.cc:74: warn: ignoring syscall mprotect(...)
build/X86/sim/syscall_emul.cc:74: warn: ignoring syscall set_robust_list(...)
build/X86/sim/syscall_emul.cc:74: warn: ignoring syscall mprotect(...)
build/X86/sim/syscall_emul.cc:74: warn: ignoring syscall mprotect(...)
build/X86/sim/syscall_emul.cc:74: warn: ignoring syscall set_robust_list(...)
build/X86/sim/syscall_emul.cc:74: warn: ignoring syscall mprotect(...)
build/X86/sim/syscall_emul.cc:74: warn: ignoring syscall set_robust_list(...)
build/X86/sim/syscall_emul.cc:74: warn: ignoring syscall mprotect(...)
build/X86/sim/syscall_emul.cc:74: warn: ignoring syscall mprotect(...)
build/X86/sim/syscall_emul.cc:74: warn: ignoring syscall mprotect(...)
build/X86/sim/syscall_emul.cc:74: warn: ignoring syscall set_robust_list(...)
build/X86/sim/syscall_emul.cc:74: warn: ignoring syscall mprotect(...)
build/X86/sim/syscall_emul.cc:74: warn: ignoring syscall mprotect(...)
build/X86/sim/syscall_emul.cc:74: warn: ignoring syscall set_robust_list(...)
build/X86/sim/syscall_emul.cc:74: warn: ignoring syscall mprotect(...)
build/X86/sim/syscall_emul.cc:74: warn: ignoring syscall mprotect(...)
build/X86/sim/syscall_emul.cc:74: warn: ignoring syscall set_robust_list(...)
build/X86/sim/syscall_emul.cc:74: warn: ignoring syscall mprotect(...)
build/X86/sim/syscall_emul.cc:74: warn: ignoring syscall mprotect(...)
build/X86/sim/syscall_emul.cc:74: warn: ignoring syscall set_robust_list(...)
build/X86/sim/syscall_emul.cc:74: warn: ignoring syscall mprotect(...)
build/X86/sim/syscall_emul.cc:74: warn: ignoring syscall mprotect(...)
build/X86/sim/syscall_emul.cc:74: warn: ignoring syscall set_robust_list(...)
build/X86/sim/syscall_emul.cc:74: warn: ignoring syscall mprotect(...)
build/X86/sim/syscall_emul.cc:74: warn: ignoring syscall mprotect(...)
build/X86/sim/syscall_emul.cc:74: warn: ignoring syscall set_robust_list(...)
build/X86/sim/syscall_emul.cc:74: warn: ignoring syscall mprotect(...)
build/X86/sim/syscall_emul.cc:74: warn: ignoring syscall mprotect(...)
build/X86/sim/syscall_emul.cc:74: warn: ignoring syscall set_robust_list(...)
build/X86/sim/syscall_emul.cc:74: warn: ignoring syscall mprotect(...)
build/X86/sim/syscall_emul.cc:74: warn: ignoring syscall mprotect(...)
build/X86/sim/syscall_emul.cc:74: warn: ignoring syscall set_robust_list(...)
build/X86/sim/syscall_emul.cc:74: warn: ignoring syscall mprotect(...)
build/X86/sim/syscall_emul.cc:74: warn: ignoring syscall mprotect(...)
build/X86/sim/syscall_emul.cc:74: warn: ignoring syscall set_robust_list(...)
build/X86/sim/syscall_emul.cc:74: warn: ignoring syscall mprotect(...)
build/X86/sim/syscall_emul.cc:74: warn: ignoring syscall mprotect(...)
build/X86/sim/syscall_emul.cc:74: warn: ignoring syscall set_robust_list(...)
build/X86/sim/syscall_emul.cc:74: warn: ignoring syscall mprotect(...)
build/X86/sim/syscall_emul.cc:74: warn: ignoring syscall mprotect(...)
build/X86/sim/syscall_emul.cc:74: warn: ignoring syscall set_robust_list(...)
build/X86/sim/syscall_emul.cc:74: warn: ignoring syscall mprotect(...)
build/X86/sim/syscall_emul.cc:74: warn: ignoring syscall mprotect(...)
build/X86/sim/syscall_emul.cc:74: warn: ignoring syscall set_robust_list(...)
build/X86/sim/syscall_emul.cc:74: warn: ignoring syscall mprotect(...)
build/X86/sim/syscall_emul.cc:74: warn: ignoring syscall mprotect(...)
build/X86/sim/syscall_emul.cc:74: warn: ignoring syscall set_robust_list(...)
build/X86/sim/syscall_emul.cc:74: warn: ignoring syscall mprotect(...)
build/X86/sim/syscall_emul.cc:74: warn: ignoring syscall mprotect(...)
build/X86/sim/syscall_emul.cc:74: warn: ignoring syscall set_robust_list(...)
build/X86/sim/syscall_emul.cc:74: warn: ignoring syscall mprotect(...)
build/X86/sim/syscall_emul.cc:74: warn: ignoring syscall mprotect(...)
build/X86/sim/syscall_emul.cc:74: warn: ignoring syscall set_robust_list(...)
build/X86/sim/syscall_emul.cc:74: warn: ignoring syscall mprotect(...)
build/X86/sim/syscall_emul.cc:74: warn: ignoring syscall mprotect(...)
build/X86/sim/syscall_emul.cc:74: warn: ignoring syscall set_robust_list(...)
build/X86/sim/syscall_emul.cc:74: warn: ignoring syscall mprotect(...)
build/X86/sim/syscall_emul.cc:74: warn: ignoring syscall mprotect(...)
build/X86/sim/syscall_emul.cc:74: warn: ignoring syscall set_robust_list(...)
build/X86/sim/syscall_emul.cc:74: warn: ignoring syscall mprotect(...)
build/X86/sim/syscall_emul.cc:74: warn: ignoring syscall mprotect(...)
build/X86/sim/syscall_emul.cc:74: warn: ignoring syscall set_robust_list(...)
build/X86/sim/syscall_emul.cc:74: warn: ignoring syscall mprotect(...)
build/X86/sim/syscall_emul.cc:74: warn: ignoring syscall mprotect(...)
build/X86/sim/syscall_emul.cc:74: warn: ignoring syscall set_robust_list(...)
build/X86/sim/syscall_emul.cc:74: warn: ignoring syscall mprotect(...)
build/X86/sim/syscall_emul.cc:74: warn: ignoring syscall mprotect(...)
build/X86/sim/syscall_emul.cc:74: warn: ignoring syscall set_robust_list(...)
build/X86/sim/syscall_emul.cc:74: warn: ignoring syscall mprotect(...)
build/X86/sim/syscall_emul.cc:74: warn: ignoring syscall mprotect(...)
build/X86/sim/syscall_emul.cc:74: warn: ignoring syscall set_robust_list(...)
build/X86/sim/syscall_emul.cc:74: warn: ignoring syscall mprotect(...)
build/X86/sim/syscall_emul.cc:74: warn: ignoring syscall mprotect(...)
build/X86/sim/syscall_emul.cc:74: warn: ignoring syscall set_robust_list(...)
build/X86/sim/syscall_emul.cc:74: warn: ignoring syscall mprotect(...)
build/X86/sim/syscall_emul.cc:74: warn: ignoring syscall mprotect(...)
build/X86/sim/syscall_emul.cc:74: warn: ignoring syscall set_robust_list(...)
build/X86/sim/syscall_emul.cc:74: warn: ignoring syscall mprotect(...)
build/X86/sim/syscall_emul.cc:74: warn: ignoring syscall mprotect(...)
build/X86/sim/syscall_emul.cc:74: warn: ignoring syscall set_robust_list(...)
build/X86/sim/syscall_emul.cc:74: warn: ignoring syscall mprotect(...)
build/X86/sim/syscall_emul.cc:74: warn: ignoring syscall mprotect(...)
build/X86/sim/syscall_emul.cc:74: warn: ignoring syscall set_robust_list(...)
build/X86/sim/syscall_emul.cc:74: warn: ignoring syscall mprotect(...)
build/X86/sim/syscall_emul.cc:74: warn: ignoring syscall mprotect(...)
build/X86/sim/syscall_emul.cc:74: warn: ignoring syscall set_robust_list(...)
build/X86/sim/syscall_emul.cc:74: warn: ignoring syscall mprotect(...)
build/X86/sim/mem_state.cc:443: info: Increasing stack size by one page.
build/X86/sim/mem_state.cc:443: info: Increasing stack size by one page.
RADIX: allocatestack.c:529: allocate_stack: Assertion `size != 0' failed.
build/X86/arch/x86/generated/exec-ns.cc.inc:27: warn: instruction 'palignr_Vdq_Wdq_Ib' unimplemented
build/X86/arch/x86/generated/exec-ns.cc.inc:27: warn: instruction 'palignr_Vdq_Wdq_Ib' unimplemented
build/X86/sim/faults.cc:60: panic: panic condition !FullSystem occurred: fault (General-Protection) detected @ PC (0x40142c=>0x40142d).(0=>1)
Memory Usage: 4822580 KBytes
Program aborted at tick 185905000
--- BEGIN LIBC BACKTRACE ---
./build/X86/gem5.debug(+0x119e119)[0x5576723a8119]
./build/X86/gem5.debug(+0x11c46b4)[0x5576723ce6b4]
/lib/x86_64-linux-gnu/libpthread.so.0(+0x14420)[0x7fea303af420]
/lib/x86_64-linux-gnu/libc.so.6(gsignal+0xcb)[0x7fea2f85900b]
/lib/x86_64-linux-gnu/libc.so.6(abort+0x12b)[0x7fea2f838859]
./build/X86/gem5.debug(+0x204f94)[0x55767140ef94]
./build/X86/gem5.debug(+0x1220523)[0x55767242a523]
./build/X86/gem5.debug(+0x2774be)[0x5576714814be]
./build/X86/gem5.debug(+0x137ade7)[0x557672584de7]
./build/X86/gem5.debug(+0x136bdae)[0x557672575dae]
./build/X86/gem5.debug(+0x136a356)[0x557672574356]
./build/X86/gem5.debug(+0x1369a2e)[0x557672573a2e]
./build/X86/gem5.debug(+0x13680b1)[0x5576725720b1]
./build/X86/gem5.debug(+0x1378ee6)[0x557672582ee6]
./build/X86/gem5.debug(+0x1375d15)[0x55767257fd15]
./build/X86/gem5.debug(+0x137f52c)[0x55767258952c]
./build/X86/gem5.debug(+0x2972a0)[0x5576714a12a0]
./build/X86/gem5.debug(+0x294784)[0x55767149e784]
./build/X86/gem5.debug(+0x11b26c0)[0x5576723bc6c0]
./build/X86/gem5.debug(+0x11df305)[0x5576723e9305]
./build/X86/gem5.debug(+0x11dedbb)[0x5576723e8dbb]
./build/X86/gem5.debug(+0x197a3b0)[0x557672b843b0]
./build/X86/gem5.debug(+0x1978a62)[0x557672b82a62]
./build/X86/gem5.debug(+0x1974c15)[0x557672b7ec15]
./build/X86/gem5.debug(+0x1974c80)[0x557672b7ec80]
./build/X86/gem5.debug(+0x218fe4)[0x557671422fe4]
/lib/x86_64-linux-gnu/libpython3.8.so.1.0(+0x2a8748)[0x7fea30668748]
/lib/x86_64-linux-gnu/libpython3.8.so.1.0(_PyEval_EvalFrameDefault+0x8dd8)[0x7fea3043df48]
/lib/x86_64-linux-gnu/libpython3.8.so.1.0(_PyEval_EvalCodeWithName+0x8fb)[0x7fea3058ae4b]
/lib/x86_64-linux-gnu/libpython3.8.so.1.0(_PyFunction_Vectorcall+0x94)[0x7fea30668124]
/lib/x86_64-linux-gnu/libpython3.8.so.1.0(+0x74d6d)[0x7fea30434d6d]
/lib/x86_64-linux-gnu/libpython3.8.so.1.0(_PyEval_EvalFrameDefault+0x7d86)[0x7fea3043cef6]
--- END LIBC BACKTRACE ---
Command terminated by signal 6
	Command being timed: "./build/X86/gem5.debug /home/gem5/gem5_new/configs/mytest2/hello.py -f /home/gem5/gem5_new/ext/CMSpec/CMSpec/test/myTests/tc1_l1l2_llc_64.xml -c 64 -b RADIX -m Octopus"
	User time (seconds): 225.06
	System time (seconds): 0.19
	Percent of CPU this job got: 99%
	Elapsed (wall clock) time (h:mm:ss or m:ss): 3:45.48
	Average shared text size (kbytes): 0
	Average unshared data size (kbytes): 0
	Average stack size (kbytes): 0
	Average total size (kbytes): 0
	Maximum resident set size (kbytes): 613836
	Average resident set size (kbytes): 0
	Major (requiring I/O) page faults: 0
	Minor (reclaiming a frame) page faults: 133615
	Voluntary context switches: 20
	Involuntary context switches: 2937
	Swaps: 0
	File system inputs: 0
	File system outputs: 9032
	Socket messages sent: 0
	Socket messages received: 0
	Signals delivered: 0
	Page size (bytes): 4096
	Exit status: 0
