2
/home/gem5/gem5_new/ext/CMSpec/CMSpec/test/myTests/tc1_l1l2_llc_2.xml
Global frequency set at 1000000000000 ticks per second
build/X86/mem/dram_interface.cc:690: warn: DRAM device capacity (8192 Mbytes) does not match the address range assigned (4096 Mbytes)
simpleCache
DEBUG COH Protocol Name in XML header: MSI
/home/gem5/gem5_new/ext/CMSpec/CMSpec/test/myTests/tc1_l1l2_llc_2.xml
FSM path: /home/gem5/gem5_new/ext/CMSpec/CMSpec/Protocols_FSM/
simpleCache
build/X86/mem/coherent_xbar.cc:140: warn: CoherentXBar board.cache_hierarchy.membus has no snooping ports attached!
0: board.remote_gdb: listening for remote gdb on port 7000
gem5 Simulator System.  https://www.gem5.org
gem5 is copyrighted software; use the --copyright option for details.

gem5 version 22.1.0.0
gem5 compiled Jun 16 2024 22:09:04
gem5 started Jun 17 2024 00:30:40
gem5 executing on gem5-VirtualBox, pid 353092
command line: ./build/X86/gem5.debug /home/gem5/gem5_new/configs/mytest2/hello.py -f /home/gem5/gem5_new/ext/CMSpec/CMSpec/test/myTests/tc1_l1l2_llc_2.xml -c 2 -b Threads

warn: The simulate package is still in a beta state. The gem5 project does not guarantee the APIs within this package will remain consistent across upcoming releases.
warn: No dot file generated. Please install pydot to generate the dot file and pdf.
build/X86/sim/simulate.cc:192: info: Entering event queue @ 0.  Starting simulation...
build/X86/arch/x86/cpuid.cc:180: warn: x86 cpuid family 0x0000: unimplemented function 13
build/X86/sim/mem_state.cc:443: info: Increasing stack size by one page.
build/X86/sim/syscall_emul.cc:74: warn: ignoring syscall mprotect(...)
build/X86/sim/syscall_emul.cc:74: warn: ignoring syscall mprotect(...)
build/X86/sim/syscall_emul.cc:74: warn: ignoring syscall mprotect(...)
build/X86/sim/syscall_emul.cc:74: warn: ignoring syscall mprotect(...)
build/X86/sim/syscall_emul.cc:74: warn: ignoring syscall mprotect(...)
build/X86/sim/syscall_emul.cc:74: warn: ignoring syscall mprotect(...)
build/X86/sim/syscall_emul.cc:74: warn: ignoring syscall mprotect(...)
build/X86/sim/syscall_emul.cc:74: warn: ignoring syscall mprotect(...)
build/X86/sim/syscall_emul.cc:74: warn: ignoring syscall set_robust_list(...)
build/X86/sim/syscall_emul.cc:85: warn: ignoring syscall rt_sigaction(...)
      (further warnings will be suppressed)
build/X86/sim/syscall_emul.cc:85: warn: ignoring syscall rt_sigprocmask(...)
      (further warnings will be suppressed)
build/X86/sim/mem_state.cc:443: info: Increasing stack size by one page.
build/X86/arch/x86/generated/exec-ns.cc.inc:27: warn: instruction 'palignr_Vdq_Wdq_Ib' unimplemented
build/X86/arch/x86/generated/exec-ns.cc.inc:27: warn: instruction 'palignr_Vdq_Wdq_Ib' unimplemented
build/X86/arch/x86/generated/exec-ns.cc.inc:27: warn: instruction 'palignr_Vdq_Wdq_Ib' unimplemented
build/X86/arch/x86/generated/exec-ns.cc.inc:27: warn: instruction 'palignr_Vdq_Wdq_Ib' unimplemented
Running on 2 cores. with 409600 values
build/X86/sim/syscall_emul.cc:74: warn: ignoring syscall mprotect(...)
build/X86/sim/power_state.cc:105: warn: PowerState: Already in the requested power state, request ignored
build/X86/sim/syscall_emul.cc:74: warn: ignoring syscall set_robust_list(...)
Waiting for other threads to complete
build/X86/sim/syscall_emul.cc:74: warn: ignoring syscall mprotect(...)
build/X86/sim/syscall_emul.cc:74: warn: ignoring syscall madvise(...)
Validating...Success!
	Command being timed: "./build/X86/gem5.debug /home/gem5/gem5_new/configs/mytest2/hello.py -f /home/gem5/gem5_new/ext/CMSpec/CMSpec/test/myTests/tc1_l1l2_llc_2.xml -c 2 -b Threads"
	User time (seconds): 2197.91
	System time (seconds): 0.29
	Percent of CPU this job got: 99%
	Elapsed (wall clock) time (h:mm:ss or m:ss): 36:38.82
	Average shared text size (kbytes): 0
	Average unshared data size (kbytes): 0
	Average stack size (kbytes): 0
	Average total size (kbytes): 0
	Maximum resident set size (kbytes): 290984
	Average resident set size (kbytes): 0
	Major (requiring I/O) page faults: 1
	Minor (reclaiming a frame) page faults: 59365
	Voluntary context switches: 9
	Involuntary context switches: 21853
	Swaps: 0
	File system inputs: 24
	File system outputs: 696
	Socket messages sent: 0
	Socket messages received: 0
	Signals delivered: 0
	Page size (bytes): 4096
	Exit status: 0
3
/home/gem5/gem5_new/ext/CMSpec/CMSpec/test/myTests/tc1_l1l2_llc_3.xml
Global frequency set at 1000000000000 ticks per second
build/X86/mem/dram_interface.cc:690: warn: DRAM device capacity (8192 Mbytes) does not match the address range assigned (4096 Mbytes)
simpleCache
DEBUG COH Protocol Name in XML header: MSI
/home/gem5/gem5_new/ext/CMSpec/CMSpec/test/myTests/tc1_l1l2_llc_3.xml
FSM path: /home/gem5/gem5_new/ext/CMSpec/CMSpec/Protocols_FSM/
simpleCache
simpleCache
build/X86/mem/coherent_xbar.cc:140: warn: CoherentXBar board.cache_hierarchy.membus has no snooping ports attached!
0: board.remote_gdb: listening for remote gdb on port 7000
gem5 Simulator System.  https://www.gem5.org
gem5 is copyrighted software; use the --copyright option for details.

gem5 version 22.1.0.0
gem5 compiled Jun 16 2024 22:09:04
gem5 started Jun 17 2024 01:07:19
gem5 executing on gem5-VirtualBox, pid 353180
command line: ./build/X86/gem5.debug /home/gem5/gem5_new/configs/mytest2/hello.py -f /home/gem5/gem5_new/ext/CMSpec/CMSpec/test/myTests/tc1_l1l2_llc_3.xml -c 3 -b Threads

warn: The simulate package is still in a beta state. The gem5 project does not guarantee the APIs within this package will remain consistent across upcoming releases.
warn: No dot file generated. Please install pydot to generate the dot file and pdf.
build/X86/sim/simulate.cc:192: info: Entering event queue @ 0.  Starting simulation...
build/X86/arch/x86/cpuid.cc:180: warn: x86 cpuid family 0x0000: unimplemented function 13
build/X86/sim/mem_state.cc:443: info: Increasing stack size by one page.
build/X86/sim/syscall_emul.cc:74: warn: ignoring syscall mprotect(...)
build/X86/sim/syscall_emul.cc:74: warn: ignoring syscall mprotect(...)
build/X86/sim/syscall_emul.cc:74: warn: ignoring syscall mprotect(...)
build/X86/sim/syscall_emul.cc:74: warn: ignoring syscall mprotect(...)
build/X86/sim/syscall_emul.cc:74: warn: ignoring syscall mprotect(...)
build/X86/sim/syscall_emul.cc:74: warn: ignoring syscall mprotect(...)
build/X86/sim/syscall_emul.cc:74: warn: ignoring syscall mprotect(...)
build/X86/sim/syscall_emul.cc:74: warn: ignoring syscall mprotect(...)
build/X86/sim/syscall_emul.cc:74: warn: ignoring syscall set_robust_list(...)
build/X86/sim/syscall_emul.cc:85: warn: ignoring syscall rt_sigaction(...)
      (further warnings will be suppressed)
build/X86/sim/syscall_emul.cc:85: warn: ignoring syscall rt_sigprocmask(...)
      (further warnings will be suppressed)
build/X86/sim/mem_state.cc:443: info: Increasing stack size by one page.
build/X86/arch/x86/generated/exec-ns.cc.inc:27: warn: instruction 'palignr_Vdq_Wdq_Ib' unimplemented
build/X86/arch/x86/generated/exec-ns.cc.inc:27: warn: instruction 'palignr_Vdq_Wdq_Ib' unimplemented
build/X86/arch/x86/generated/exec-ns.cc.inc:27: warn: instruction 'palignr_Vdq_Wdq_Ib' unimplemented
build/X86/arch/x86/generated/exec-ns.cc.inc:27: warn: instruction 'palignr_Vdq_Wdq_Ib' unimplemented
Running on 3 cores. with 409600 values
build/X86/sim/syscall_emul.cc:74: warn: ignoring syscall mprotect(...)
build/X86/sim/power_state.cc:105: warn: PowerState: Already in the requested power state, request ignored
build/X86/sim/syscall_emul.cc:74: warn: ignoring syscall set_robust_list(...)
build/X86/sim/syscall_emul.cc:74: warn: ignoring syscall mprotect(...)
build/X86/sim/syscall_emul.cc:74: warn: ignoring syscall set_robust_list(...)
Waiting for other threads to complete
build/X86/sim/process.cc:333: warn: Process::allocateMem: addr 0x7ffff7c6f000 already mapped
build/X86/sim/syscall_emul.cc:74: warn: ignoring syscall mprotect(...)
build/X86/sim/syscall_emul.cc:74: warn: ignoring syscall mprotect(...)
build/X86/sim/process.cc:333: warn: Process::allocateMem: addr 0x7ffff7c70000 already mapped
build/X86/sim/process.cc:333: warn: Process::allocateMem: addr 0x7ffff7d2d000 already mapped
build/X86/sim/process.cc:333: warn: Process::allocateMem: addr 0x7ffff7d1b000 already mapped
build/X86/sim/syscall_emul.cc:74: warn: ignoring syscall madvise(...)
build/X86/sim/syscall_emul.cc:74: warn: ignoring syscall madvise(...)
Validating...Success!
	Command being timed: "./build/X86/gem5.debug /home/gem5/gem5_new/configs/mytest2/hello.py -f /home/gem5/gem5_new/ext/CMSpec/CMSpec/test/myTests/tc1_l1l2_llc_3.xml -c 3 -b Threads"
	User time (seconds): 2324.36
	System time (seconds): 0.21
	Percent of CPU this job got: 99%
	Elapsed (wall clock) time (h:mm:ss or m:ss): 38:44.93
	Average shared text size (kbytes): 0
	Average unshared data size (kbytes): 0
	Average stack size (kbytes): 0
	Average total size (kbytes): 0
	Maximum resident set size (kbytes): 311788
	Average resident set size (kbytes): 0
	Major (requiring I/O) page faults: 0
	Minor (reclaiming a frame) page faults: 64566
	Voluntary context switches: 10
	Involuntary context switches: 14424
	Swaps: 0
	File system inputs: 0
	File system outputs: 968
	Socket messages sent: 0
	Socket messages received: 0
	Signals delivered: 0
	Page size (bytes): 4096
	Exit status: 0
4
/home/gem5/gem5_new/ext/CMSpec/CMSpec/test/myTests/tc1_l1l2_llc_4.xml
Global frequency set at 1000000000000 ticks per second
build/X86/mem/dram_interface.cc:690: warn: DRAM device capacity (8192 Mbytes) does not match the address range assigned (4096 Mbytes)
simpleCache
DEBUG COH Protocol Name in XML header: MSI
/home/gem5/gem5_new/ext/CMSpec/CMSpec/test/myTests/tc1_l1l2_llc_4.xml
FSM path: /home/gem5/gem5_new/ext/CMSpec/CMSpec/Protocols_FSM/
simpleCache
simpleCache
simpleCache
build/X86/mem/coherent_xbar.cc:140: warn: CoherentXBar board.cache_hierarchy.membus has no snooping ports attached!
0: board.remote_gdb: listening for remote gdb on port 7000
gem5 Simulator System.  https://www.gem5.org
gem5 is copyrighted software; use the --copyright option for details.

gem5 version 22.1.0.0
gem5 compiled Jun 16 2024 22:09:04
gem5 started Jun 17 2024 01:46:04
gem5 executing on gem5-VirtualBox, pid 353216
command line: ./build/X86/gem5.debug /home/gem5/gem5_new/configs/mytest2/hello.py -f /home/gem5/gem5_new/ext/CMSpec/CMSpec/test/myTests/tc1_l1l2_llc_4.xml -c 4 -b Threads

warn: The simulate package is still in a beta state. The gem5 project does not guarantee the APIs within this package will remain consistent across upcoming releases.
warn: No dot file generated. Please install pydot to generate the dot file and pdf.
build/X86/sim/simulate.cc:192: info: Entering event queue @ 0.  Starting simulation...
build/X86/arch/x86/cpuid.cc:180: warn: x86 cpuid family 0x0000: unimplemented function 13
build/X86/sim/mem_state.cc:443: info: Increasing stack size by one page.
build/X86/sim/syscall_emul.cc:74: warn: ignoring syscall mprotect(...)
build/X86/sim/syscall_emul.cc:74: warn: ignoring syscall mprotect(...)
build/X86/sim/syscall_emul.cc:74: warn: ignoring syscall mprotect(...)
build/X86/sim/syscall_emul.cc:74: warn: ignoring syscall mprotect(...)
build/X86/sim/syscall_emul.cc:74: warn: ignoring syscall mprotect(...)
build/X86/sim/syscall_emul.cc:74: warn: ignoring syscall mprotect(...)
build/X86/sim/syscall_emul.cc:74: warn: ignoring syscall mprotect(...)
build/X86/sim/syscall_emul.cc:74: warn: ignoring syscall mprotect(...)
build/X86/sim/syscall_emul.cc:74: warn: ignoring syscall set_robust_list(...)
build/X86/sim/syscall_emul.cc:85: warn: ignoring syscall rt_sigaction(...)
      (further warnings will be suppressed)
build/X86/sim/syscall_emul.cc:85: warn: ignoring syscall rt_sigprocmask(...)
      (further warnings will be suppressed)
build/X86/sim/mem_state.cc:443: info: Increasing stack size by one page.
build/X86/arch/x86/generated/exec-ns.cc.inc:27: warn: instruction 'palignr_Vdq_Wdq_Ib' unimplemented
build/X86/arch/x86/generated/exec-ns.cc.inc:27: warn: instruction 'palignr_Vdq_Wdq_Ib' unimplemented
build/X86/arch/x86/generated/exec-ns.cc.inc:27: warn: instruction 'palignr_Vdq_Wdq_Ib' unimplemented
build/X86/arch/x86/generated/exec-ns.cc.inc:27: warn: instruction 'palignr_Vdq_Wdq_Ib' unimplemented
Running on 4 cores. with 409600 values
build/X86/sim/syscall_emul.cc:74: warn: ignoring syscall mprotect(...)
build/X86/sim/power_state.cc:105: warn: PowerState: Already in the requested power state, request ignored
build/X86/sim/syscall_emul.cc:74: warn: ignoring syscall set_robust_list(...)
build/X86/sim/syscall_emul.cc:74: warn: ignoring syscall mprotect(...)
build/X86/sim/syscall_emul.cc:74: warn: ignoring syscall set_robust_list(...)
build/X86/sim/syscall_emul.cc:74: warn: ignoring syscall mprotect(...)
build/X86/sim/syscall_emul.cc:74: warn: ignoring syscall set_robust_list(...)
Waiting for other threads to complete
build/X86/sim/process.cc:333: warn: Process::allocateMem: addr 0x7ffff7c6f000 already mapped
build/X86/sim/syscall_emul.cc:74: warn: ignoring syscall mprotect(...)
build/X86/sim/syscall_emul.cc:74: warn: ignoring syscall mprotect(...)
build/X86/sim/syscall_emul.cc:74: warn: ignoring syscall mprotect(...)
build/X86/sim/process.cc:333: warn: Process::allocateMem: addr 0x7ffff7c70000 already mapped
build/X86/sim/process.cc:333: warn: Process::allocateMem: addr 0x7ffff7c70000 already mapped
build/X86/sim/process.cc:333: warn: Process::allocateMem: addr 0x7ffff7c21000 already mapped
build/X86/sim/process.cc:333: warn: Process::allocateMem: addr 0x7ffff7d2d000 already mapped
build/X86/sim/process.cc:333: warn: Process::allocateMem: addr 0x7ffff7d2d000 already mapped
build/X86/sim/process.cc:333: warn: Process::allocateMem: addr 0x7ffff7d1b000 already mapped
build/X86/sim/process.cc:333: warn: Process::allocateMem: addr 0x7ffff7d1b000 already mapped
build/X86/sim/syscall_emul.cc:74: warn: ignoring syscall madvise(...)
build/X86/sim/syscall_emul.cc:74: warn: ignoring syscall madvise(...)
build/X86/sim/syscall_emul.cc:74: warn: ignoring syscall madvise(...)
Validating...Success!
	Command being timed: "./build/X86/gem5.debug /home/gem5/gem5_new/configs/mytest2/hello.py -f /home/gem5/gem5_new/ext/CMSpec/CMSpec/test/myTests/tc1_l1l2_llc_4.xml -c 4 -b Threads"
	User time (seconds): 2491.00
	System time (seconds): 0.21
	Percent of CPU this job got: 99%
	Elapsed (wall clock) time (h:mm:ss or m:ss): 41:31.41
	Average shared text size (kbytes): 0
	Average unshared data size (kbytes): 0
	Average stack size (kbytes): 0
	Average total size (kbytes): 0
	Maximum resident set size (kbytes): 332660
	Average resident set size (kbytes): 0
	Major (requiring I/O) page faults: 0
	Minor (reclaiming a frame) page faults: 69683
	Voluntary context switches: 9
	Involuntary context switches: 16164
	Swaps: 0
	File system inputs: 0
	File system outputs: 1224
	Socket messages sent: 0
	Socket messages received: 0
	Signals delivered: 0
	Page size (bytes): 4096
	Exit status: 0
5
/home/gem5/gem5_new/ext/CMSpec/CMSpec/test/myTests/tc1_l1l2_llc_5.xml
Global frequency set at 1000000000000 ticks per second
build/X86/mem/dram_interface.cc:690: warn: DRAM device capacity (8192 Mbytes) does not match the address range assigned (4096 Mbytes)
simpleCache
DEBUG COH Protocol Name in XML header: MSI
/home/gem5/gem5_new/ext/CMSpec/CMSpec/test/myTests/tc1_l1l2_llc_5.xml
FSM path: /home/gem5/gem5_new/ext/CMSpec/CMSpec/Protocols_FSM/
simpleCache
simpleCache
simpleCache
simpleCache
build/X86/mem/coherent_xbar.cc:140: warn: CoherentXBar board.cache_hierarchy.membus has no snooping ports attached!
0: board.remote_gdb: listening for remote gdb on port 7000
gem5 Simulator System.  https://www.gem5.org
gem5 is copyrighted software; use the --copyright option for details.

gem5 version 22.1.0.0
gem5 compiled Jun 16 2024 22:09:04
gem5 started Jun 17 2024 02:27:36
gem5 executing on gem5-VirtualBox, pid 353265
command line: ./build/X86/gem5.debug /home/gem5/gem5_new/configs/mytest2/hello.py -f /home/gem5/gem5_new/ext/CMSpec/CMSpec/test/myTests/tc1_l1l2_llc_5.xml -c 5 -b Threads

warn: The simulate package is still in a beta state. The gem5 project does not guarantee the APIs within this package will remain consistent across upcoming releases.
warn: No dot file generated. Please install pydot to generate the dot file and pdf.
build/X86/sim/simulate.cc:192: info: Entering event queue @ 0.  Starting simulation...
build/X86/arch/x86/cpuid.cc:180: warn: x86 cpuid family 0x0000: unimplemented function 13
build/X86/sim/mem_state.cc:443: info: Increasing stack size by one page.
build/X86/sim/syscall_emul.cc:74: warn: ignoring syscall mprotect(...)
build/X86/sim/syscall_emul.cc:74: warn: ignoring syscall mprotect(...)
build/X86/sim/syscall_emul.cc:74: warn: ignoring syscall mprotect(...)
build/X86/sim/syscall_emul.cc:74: warn: ignoring syscall mprotect(...)
build/X86/sim/syscall_emul.cc:74: warn: ignoring syscall mprotect(...)
build/X86/sim/syscall_emul.cc:74: warn: ignoring syscall mprotect(...)
build/X86/sim/syscall_emul.cc:74: warn: ignoring syscall mprotect(...)
build/X86/sim/syscall_emul.cc:74: warn: ignoring syscall mprotect(...)
build/X86/sim/syscall_emul.cc:74: warn: ignoring syscall set_robust_list(...)
build/X86/sim/syscall_emul.cc:85: warn: ignoring syscall rt_sigaction(...)
      (further warnings will be suppressed)
build/X86/sim/syscall_emul.cc:85: warn: ignoring syscall rt_sigprocmask(...)
      (further warnings will be suppressed)
build/X86/sim/mem_state.cc:443: info: Increasing stack size by one page.
build/X86/arch/x86/generated/exec-ns.cc.inc:27: warn: instruction 'palignr_Vdq_Wdq_Ib' unimplemented
build/X86/arch/x86/generated/exec-ns.cc.inc:27: warn: instruction 'palignr_Vdq_Wdq_Ib' unimplemented
build/X86/arch/x86/generated/exec-ns.cc.inc:27: warn: instruction 'palignr_Vdq_Wdq_Ib' unimplemented
build/X86/arch/x86/generated/exec-ns.cc.inc:27: warn: instruction 'palignr_Vdq_Wdq_Ib' unimplemented
Running on 5 cores. with 409600 values
build/X86/sim/syscall_emul.cc:74: warn: ignoring syscall mprotect(...)
build/X86/sim/power_state.cc:105: warn: PowerState: Already in the requested power state, request ignored
build/X86/sim/syscall_emul.cc:74: warn: ignoring syscall set_robust_list(...)
build/X86/sim/syscall_emul.cc:74: warn: ignoring syscall mprotect(...)
build/X86/sim/syscall_emul.cc:74: warn: ignoring syscall set_robust_list(...)
build/X86/sim/syscall_emul.cc:74: warn: ignoring syscall mprotect(...)
build/X86/sim/syscall_emul.cc:74: warn: ignoring syscall set_robust_list(...)
build/X86/sim/syscall_emul.cc:74: warn: ignoring syscall mprotect(...)
build/X86/sim/syscall_emul.cc:74: warn: ignoring syscall set_robust_list(...)
Waiting for other threads to complete
build/X86/sim/process.cc:333: warn: Process::allocateMem: addr 0x7ffff7c6f000 already mapped
build/X86/sim/syscall_emul.cc:74: warn: ignoring syscall mprotect(...)
build/X86/sim/syscall_emul.cc:74: warn: ignoring syscall mprotect(...)
build/X86/sim/syscall_emul.cc:74: warn: ignoring syscall mprotect(...)
build/X86/sim/syscall_emul.cc:74: warn: ignoring syscall mprotect(...)
build/X86/sim/process.cc:333: warn: Process::allocateMem: addr 0x7ffff7c70000 already mapped
build/X86/sim/process.cc:333: warn: Process::allocateMem: addr 0x7ffff7c70000 already mapped
build/X86/sim/process.cc:333: warn: Process::allocateMem: addr 0x7ffff7c70000 already mapped
build/X86/sim/process.cc:333: warn: Process::allocateMem: addr 0x7ffff7d2d000 already mapped
build/X86/sim/process.cc:333: warn: Process::allocateMem: addr 0x7ffff7d2d000 already mapped
build/X86/sim/process.cc:333: warn: Process::allocateMem: addr 0x7ffff7d1b000 already mapped
build/X86/sim/process.cc:333: warn: Process::allocateMem: addr 0x7ffff7d1b000 already mapped
build/X86/sim/syscall_emul.cc:74: warn: ignoring syscall madvise(...)
build/X86/sim/syscall_emul.cc:74: warn: ignoring syscall madvise(...)
build/X86/sim/syscall_emul.cc:74: warn: ignoring syscall madvise(...)
build/X86/sim/syscall_emul.cc:74: warn: ignoring syscall madvise(...)
Validating...Success!
	Command being timed: "./build/X86/gem5.debug /home/gem5/gem5_new/configs/mytest2/hello.py -f /home/gem5/gem5_new/ext/CMSpec/CMSpec/test/myTests/tc1_l1l2_llc_5.xml -c 5 -b Threads"
	User time (seconds): 2623.26
	System time (seconds): 0.21
	Percent of CPU this job got: 99%
	Elapsed (wall clock) time (h:mm:ss or m:ss): 43:43.69
	Average shared text size (kbytes): 0
	Average unshared data size (kbytes): 0
	Average stack size (kbytes): 0
	Average total size (kbytes): 0
	Maximum resident set size (kbytes): 352456
	Average resident set size (kbytes): 0
	Major (requiring I/O) page faults: 0
	Minor (reclaiming a frame) page faults: 74622
	Voluntary context switches: 9
	Involuntary context switches: 14723
	Swaps: 0
	File system inputs: 0
	File system outputs: 1480
	Socket messages sent: 0
	Socket messages received: 0
	Signals delivered: 0
	Page size (bytes): 4096
	Exit status: 0
6
/home/gem5/gem5_new/ext/CMSpec/CMSpec/test/myTests/tc1_l1l2_llc_6.xml
Global frequency set at 1000000000000 ticks per second
build/X86/mem/dram_interface.cc:690: warn: DRAM device capacity (8192 Mbytes) does not match the address range assigned (4096 Mbytes)
simpleCache
DEBUG COH Protocol Name in XML header: MSI
/home/gem5/gem5_new/ext/CMSpec/CMSpec/test/myTests/tc1_l1l2_llc_6.xml
FSM path: /home/gem5/gem5_new/ext/CMSpec/CMSpec/Protocols_FSM/
simpleCache
simpleCache
simpleCache
simpleCache
simpleCache
build/X86/mem/coherent_xbar.cc:140: warn: CoherentXBar board.cache_hierarchy.membus has no snooping ports attached!
0: board.remote_gdb: listening for remote gdb on port 7000
gem5 Simulator System.  https://www.gem5.org
gem5 is copyrighted software; use the --copyright option for details.

gem5 version 22.1.0.0
gem5 compiled Jun 16 2024 22:09:04
gem5 started Jun 17 2024 03:11:19
gem5 executing on gem5-VirtualBox, pid 353299
command line: ./build/X86/gem5.debug /home/gem5/gem5_new/configs/mytest2/hello.py -f /home/gem5/gem5_new/ext/CMSpec/CMSpec/test/myTests/tc1_l1l2_llc_6.xml -c 6 -b Threads

warn: The simulate package is still in a beta state. The gem5 project does not guarantee the APIs within this package will remain consistent across upcoming releases.
warn: No dot file generated. Please install pydot to generate the dot file and pdf.
build/X86/sim/simulate.cc:192: info: Entering event queue @ 0.  Starting simulation...
build/X86/arch/x86/cpuid.cc:180: warn: x86 cpuid family 0x0000: unimplemented function 13
build/X86/sim/mem_state.cc:443: info: Increasing stack size by one page.
build/X86/sim/syscall_emul.cc:74: warn: ignoring syscall mprotect(...)
build/X86/sim/syscall_emul.cc:74: warn: ignoring syscall mprotect(...)
build/X86/sim/syscall_emul.cc:74: warn: ignoring syscall mprotect(...)
build/X86/sim/syscall_emul.cc:74: warn: ignoring syscall mprotect(...)
build/X86/sim/syscall_emul.cc:74: warn: ignoring syscall mprotect(...)
build/X86/sim/syscall_emul.cc:74: warn: ignoring syscall mprotect(...)
build/X86/sim/syscall_emul.cc:74: warn: ignoring syscall mprotect(...)
build/X86/sim/syscall_emul.cc:74: warn: ignoring syscall mprotect(...)
build/X86/sim/syscall_emul.cc:74: warn: ignoring syscall set_robust_list(...)
build/X86/sim/syscall_emul.cc:85: warn: ignoring syscall rt_sigaction(...)
      (further warnings will be suppressed)
build/X86/sim/syscall_emul.cc:85: warn: ignoring syscall rt_sigprocmask(...)
      (further warnings will be suppressed)
build/X86/sim/mem_state.cc:443: info: Increasing stack size by one page.
build/X86/arch/x86/generated/exec-ns.cc.inc:27: warn: instruction 'palignr_Vdq_Wdq_Ib' unimplemented
build/X86/arch/x86/generated/exec-ns.cc.inc:27: warn: instruction 'palignr_Vdq_Wdq_Ib' unimplemented
build/X86/arch/x86/generated/exec-ns.cc.inc:27: warn: instruction 'palignr_Vdq_Wdq_Ib' unimplemented
build/X86/arch/x86/generated/exec-ns.cc.inc:27: warn: instruction 'palignr_Vdq_Wdq_Ib' unimplemented
Running on 6 cores. with 409600 values
build/X86/sim/syscall_emul.cc:74: warn: ignoring syscall mprotect(...)
build/X86/sim/power_state.cc:105: warn: PowerState: Already in the requested power state, request ignored
build/X86/sim/syscall_emul.cc:74: warn: ignoring syscall set_robust_list(...)
build/X86/sim/syscall_emul.cc:74: warn: ignoring syscall mprotect(...)
build/X86/sim/syscall_emul.cc:74: warn: ignoring syscall set_robust_list(...)
build/X86/sim/syscall_emul.cc:74: warn: ignoring syscall mprotect(...)
build/X86/sim/syscall_emul.cc:74: warn: ignoring syscall set_robust_list(...)
build/X86/sim/syscall_emul.cc:74: warn: ignoring syscall mprotect(...)
build/X86/sim/syscall_emul.cc:74: warn: ignoring syscall set_robust_list(...)
build/X86/sim/syscall_emul.cc:74: warn: ignoring syscall mprotect(...)
build/X86/sim/syscall_emul.cc:74: warn: ignoring syscall set_robust_list(...)
Waiting for other threads to complete
build/X86/sim/process.cc:333: warn: Process::allocateMem: addr 0x7ffff7c6f000 already mapped
build/X86/sim/syscall_emul.cc:74: warn: ignoring syscall mprotect(...)
build/X86/sim/syscall_emul.cc:74: warn: ignoring syscall mprotect(...)
build/X86/sim/syscall_emul.cc:74: warn: ignoring syscall mprotect(...)
build/X86/sim/syscall_emul.cc:74: warn: ignoring syscall mprotect(...)
build/X86/sim/syscall_emul.cc:74: warn: ignoring syscall mprotect(...)
build/X86/sim/process.cc:333: warn: Process::allocateMem: addr 0x7ffff7c70000 already mapped
build/X86/sim/process.cc:333: warn: Process::allocateMem: addr 0x7ffff7c70000 already mapped
build/X86/sim/process.cc:333: warn: Process::allocateMem: addr 0x7ffff7c21000 already mapped
build/X86/sim/process.cc:333: warn: Process::allocateMem: addr 0x7ffff7d2d000 already mapped
build/X86/sim/process.cc:333: warn: Process::allocateMem: addr 0x7ffff7d2d000 already mapped
build/X86/sim/process.cc:333: warn: Process::allocateMem: addr 0x7ffff7d1b000 already mapped
build/X86/sim/process.cc:333: warn: Process::allocateMem: addr 0x7ffff7d1b000 already mapped
build/X86/sim/syscall_emul.cc:74: warn: ignoring syscall madvise(...)
build/X86/sim/syscall_emul.cc:74: warn: ignoring syscall madvise(...)
build/X86/sim/syscall_emul.cc:74: warn: ignoring syscall madvise(...)
build/X86/sim/syscall_emul.cc:74: warn: ignoring syscall madvise(...)
build/X86/sim/syscall_emul.cc:74: warn: ignoring syscall madvise(...)
Validating...Success!
	Command being timed: "./build/X86/gem5.debug /home/gem5/gem5_new/configs/mytest2/hello.py -f /home/gem5/gem5_new/ext/CMSpec/CMSpec/test/myTests/tc1_l1l2_llc_6.xml -c 6 -b Threads"
	User time (seconds): 2755.31
	System time (seconds): 0.24
	Percent of CPU this job got: 99%
	Elapsed (wall clock) time (h:mm:ss or m:ss): 45:55.74
	Average shared text size (kbytes): 0
	Average unshared data size (kbytes): 0
	Average stack size (kbytes): 0
	Average total size (kbytes): 0
	Maximum resident set size (kbytes): 373620
	Average resident set size (kbytes): 0
	Major (requiring I/O) page faults: 0
	Minor (reclaiming a frame) page faults: 79700
	Voluntary context switches: 9
	Involuntary context switches: 14247
	Swaps: 0
	File system inputs: 0
	File system outputs: 1776
	Socket messages sent: 0
	Socket messages received: 0
	Signals delivered: 0
	Page size (bytes): 4096
	Exit status: 0
7
/home/gem5/gem5_new/ext/CMSpec/CMSpec/test/myTests/tc1_l1l2_llc_7.xml
Global frequency set at 1000000000000 ticks per second
build/X86/mem/dram_interface.cc:690: warn: DRAM device capacity (8192 Mbytes) does not match the address range assigned (4096 Mbytes)
simpleCache
DEBUG COH Protocol Name in XML header: MSI
/home/gem5/gem5_new/ext/CMSpec/CMSpec/test/myTests/tc1_l1l2_llc_7.xml
FSM path: /home/gem5/gem5_new/ext/CMSpec/CMSpec/Protocols_FSM/
simpleCache
simpleCache
simpleCache
simpleCache
simpleCache
simpleCache
build/X86/mem/coherent_xbar.cc:140: warn: CoherentXBar board.cache_hierarchy.membus has no snooping ports attached!
0: board.remote_gdb: listening for remote gdb on port 7000
gem5 Simulator System.  https://www.gem5.org
gem5 is copyrighted software; use the --copyright option for details.

gem5 version 22.1.0.0
gem5 compiled Jun 16 2024 22:09:04
gem5 started Jun 17 2024 03:57:15
gem5 executing on gem5-VirtualBox, pid 353335
command line: ./build/X86/gem5.debug /home/gem5/gem5_new/configs/mytest2/hello.py -f /home/gem5/gem5_new/ext/CMSpec/CMSpec/test/myTests/tc1_l1l2_llc_7.xml -c 7 -b Threads

warn: The simulate package is still in a beta state. The gem5 project does not guarantee the APIs within this package will remain consistent across upcoming releases.
warn: No dot file generated. Please install pydot to generate the dot file and pdf.
build/X86/sim/simulate.cc:192: info: Entering event queue @ 0.  Starting simulation...
build/X86/arch/x86/cpuid.cc:180: warn: x86 cpuid family 0x0000: unimplemented function 13
build/X86/sim/mem_state.cc:443: info: Increasing stack size by one page.
build/X86/sim/syscall_emul.cc:74: warn: ignoring syscall mprotect(...)
build/X86/sim/syscall_emul.cc:74: warn: ignoring syscall mprotect(...)
build/X86/sim/syscall_emul.cc:74: warn: ignoring syscall mprotect(...)
build/X86/sim/syscall_emul.cc:74: warn: ignoring syscall mprotect(...)
build/X86/sim/syscall_emul.cc:74: warn: ignoring syscall mprotect(...)
build/X86/sim/syscall_emul.cc:74: warn: ignoring syscall mprotect(...)
build/X86/sim/syscall_emul.cc:74: warn: ignoring syscall mprotect(...)
build/X86/sim/syscall_emul.cc:74: warn: ignoring syscall mprotect(...)
build/X86/sim/syscall_emul.cc:74: warn: ignoring syscall set_robust_list(...)
build/X86/sim/syscall_emul.cc:85: warn: ignoring syscall rt_sigaction(...)
      (further warnings will be suppressed)
build/X86/sim/syscall_emul.cc:85: warn: ignoring syscall rt_sigprocmask(...)
      (further warnings will be suppressed)
build/X86/sim/mem_state.cc:443: info: Increasing stack size by one page.
build/X86/arch/x86/generated/exec-ns.cc.inc:27: warn: instruction 'palignr_Vdq_Wdq_Ib' unimplemented
build/X86/arch/x86/generated/exec-ns.cc.inc:27: warn: instruction 'palignr_Vdq_Wdq_Ib' unimplemented
build/X86/arch/x86/generated/exec-ns.cc.inc:27: warn: instruction 'palignr_Vdq_Wdq_Ib' unimplemented
build/X86/arch/x86/generated/exec-ns.cc.inc:27: warn: instruction 'palignr_Vdq_Wdq_Ib' unimplemented
Running on 7 cores. with 409600 values
build/X86/sim/syscall_emul.cc:74: warn: ignoring syscall mprotect(...)
build/X86/sim/power_state.cc:105: warn: PowerState: Already in the requested power state, request ignored
build/X86/sim/syscall_emul.cc:74: warn: ignoring syscall set_robust_list(...)
build/X86/sim/syscall_emul.cc:74: warn: ignoring syscall mprotect(...)
build/X86/sim/syscall_emul.cc:74: warn: ignoring syscall set_robust_list(...)
build/X86/sim/syscall_emul.cc:74: warn: ignoring syscall mprotect(...)
build/X86/sim/syscall_emul.cc:74: warn: ignoring syscall set_robust_list(...)
build/X86/sim/syscall_emul.cc:74: warn: ignoring syscall mprotect(...)
build/X86/sim/syscall_emul.cc:74: warn: ignoring syscall set_robust_list(...)
build/X86/sim/syscall_emul.cc:74: warn: ignoring syscall mprotect(...)
build/X86/sim/syscall_emul.cc:74: warn: ignoring syscall set_robust_list(...)
build/X86/sim/syscall_emul.cc:74: warn: ignoring syscall mprotect(...)
build/X86/sim/syscall_emul.cc:74: warn: ignoring syscall set_robust_list(...)
Waiting for other threads to complete
build/X86/sim/process.cc:333: warn: Process::allocateMem: addr 0x7ffff7c6f000 already mapped
build/X86/sim/syscall_emul.cc:74: warn: ignoring syscall mprotect(...)
build/X86/sim/syscall_emul.cc:74: warn: ignoring syscall mprotect(...)
build/X86/sim/syscall_emul.cc:74: warn: ignoring syscall mprotect(...)
build/X86/sim/syscall_emul.cc:74: warn: ignoring syscall mprotect(...)
build/X86/sim/syscall_emul.cc:74: warn: ignoring syscall mprotect(...)
build/X86/sim/syscall_emul.cc:74: warn: ignoring syscall mprotect(...)
build/X86/sim/process.cc:333: warn: Process::allocateMem: addr 0x7ffff7c70000 already mapped
build/X86/sim/process.cc:333: warn: Process::allocateMem: addr 0x7ffff7d2d000 already mapped
build/X86/sim/process.cc:333: warn: Process::allocateMem: addr 0x7ffff7d2d000 already mapped
build/X86/sim/process.cc:333: warn: Process::allocateMem: addr 0x7ffff7d1b000 already mapped
build/X86/sim/process.cc:333: warn: Process::allocateMem: addr 0x7ffff7d1b000 already mapped
build/X86/sim/syscall_emul.cc:74: warn: ignoring syscall madvise(...)
build/X86/sim/syscall_emul.cc:74: warn: ignoring syscall madvise(...)
build/X86/sim/syscall_emul.cc:74: warn: ignoring syscall madvise(...)
build/X86/sim/syscall_emul.cc:74: warn: ignoring syscall madvise(...)
build/X86/sim/syscall_emul.cc:74: warn: ignoring syscall madvise(...)
build/X86/sim/syscall_emul.cc:74: warn: ignoring syscall madvise(...)
Validating...Success!
	Command being timed: "./build/X86/gem5.debug /home/gem5/gem5_new/configs/mytest2/hello.py -f /home/gem5/gem5_new/ext/CMSpec/CMSpec/test/myTests/tc1_l1l2_llc_7.xml -c 7 -b Threads"
	User time (seconds): 2732.39
	System time (seconds): 0.18
	Percent of CPU this job got: 99%
	Elapsed (wall clock) time (h:mm:ss or m:ss): 45:32.87
	Average shared text size (kbytes): 0
	Average unshared data size (kbytes): 0
	Average stack size (kbytes): 0
	Average total size (kbytes): 0
	Maximum resident set size (kbytes): 367876
	Average resident set size (kbytes): 0
	Major (requiring I/O) page faults: 0
	Minor (reclaiming a frame) page faults: 78213
	Voluntary context switches: 9
	Involuntary context switches: 14581
	Swaps: 0
	File system inputs: 0
	File system outputs: 2024
	Socket messages sent: 0
	Socket messages received: 0
	Signals delivered: 0
	Page size (bytes): 4096
	Exit status: 0
8
/home/gem5/gem5_new/ext/CMSpec/CMSpec/test/myTests/tc1_l1l2_llc_8.xml
Global frequency set at 1000000000000 ticks per second
build/X86/mem/dram_interface.cc:690: warn: DRAM device capacity (8192 Mbytes) does not match the address range assigned (4096 Mbytes)
simpleCache
DEBUG COH Protocol Name in XML header: MSI
/home/gem5/gem5_new/ext/CMSpec/CMSpec/test/myTests/tc1_l1l2_llc_8.xml
FSM path: /home/gem5/gem5_new/ext/CMSpec/CMSpec/Protocols_FSM/
simpleCache
simpleCache
IndexError: map::at

At:
  build/X86/python/m5/SimObject.py(1244): getCCObject
  build/X86/python/m5/SimObject.py(1265): createCCObject
  build/X86/python/m5/simulate.py(124): instantiate
  build/X86/python/gem5/simulate/simulator.py(429): _instantiate
  build/X86/python/gem5/simulate/simulator.py(457): run
  /home/gem5/gem5_new/configs/mytest2/hello.py(130): <module>
  build/X86/python/m5/main.py(597): main
gem5 Simulator System.  https://www.gem5.org
gem5 is copyrighted software; use the --copyright option for details.

gem5 version 22.1.0.0
gem5 compiled Jun 16 2024 22:09:04
gem5 started Jun 17 2024 04:42:48
gem5 executing on gem5-VirtualBox, pid 353367
command line: ./build/X86/gem5.debug /home/gem5/gem5_new/configs/mytest2/hello.py -f /home/gem5/gem5_new/ext/CMSpec/CMSpec/test/myTests/tc1_l1l2_llc_8.xml -c 8 -b Threads

warn: The simulate package is still in a beta state. The gem5 project does not guarantee the APIs within this package will remain consistent across upcoming releases.
warn: No dot file generated. Please install pydot to generate the dot file and pdf.
Command exited with non-zero status 1
	Command being timed: "./build/X86/gem5.debug /home/gem5/gem5_new/configs/mytest2/hello.py -f /home/gem5/gem5_new/ext/CMSpec/CMSpec/test/myTests/tc1_l1l2_llc_8.xml -c 8 -b Threads"
	User time (seconds): 0.39
	System time (seconds): 0.02
	Percent of CPU this job got: 96%
	Elapsed (wall clock) time (h:mm:ss or m:ss): 0:00.43
	Average shared text size (kbytes): 0
	Average unshared data size (kbytes): 0
	Average stack size (kbytes): 0
	Average total size (kbytes): 0
	Maximum resident set size (kbytes): 81060
	Average resident set size (kbytes): 0
	Major (requiring I/O) page faults: 1
	Minor (reclaiming a frame) page faults: 9926
	Voluntary context switches: 2
	Involuntary context switches: 4
	Swaps: 0
	File system inputs: 32
	File system outputs: 1136
	Socket messages sent: 0
	Socket messages received: 0
	Signals delivered: 0
	Page size (bytes): 4096
	Exit status: 1
9
/home/gem5/gem5_new/ext/CMSpec/CMSpec/test/myTests/tc1_l1l2_llc_9.xml
Global frequency set at 1000000000000 ticks per second
build/X86/mem/dram_interface.cc:690: warn: DRAM device capacity (8192 Mbytes) does not match the address range assigned (4096 Mbytes)
simpleCache
DEBUG COH Protocol Name in XML header: MSI
/home/gem5/gem5_new/ext/CMSpec/CMSpec/test/myTests/tc1_l1l2_llc_9.xml
FSM path: /home/gem5/gem5_new/ext/CMSpec/CMSpec/Protocols_FSM/
simpleCache
simpleCache
simpleCache
simpleCache
simpleCache
simpleCache
simpleCache
simpleCache
build/X86/mem/coherent_xbar.cc:140: warn: CoherentXBar board.cache_hierarchy.membus has no snooping ports attached!
0: board.remote_gdb: listening for remote gdb on port 7000
gem5 Simulator System.  https://www.gem5.org
gem5 is copyrighted software; use the --copyright option for details.

gem5 version 22.1.0.0
gem5 compiled Jun 16 2024 22:09:04
gem5 started Jun 17 2024 04:42:48
gem5 executing on gem5-VirtualBox, pid 353369
command line: ./build/X86/gem5.debug /home/gem5/gem5_new/configs/mytest2/hello.py -f /home/gem5/gem5_new/ext/CMSpec/CMSpec/test/myTests/tc1_l1l2_llc_9.xml -c 9 -b Threads

warn: The simulate package is still in a beta state. The gem5 project does not guarantee the APIs within this package will remain consistent across upcoming releases.
warn: No dot file generated. Please install pydot to generate the dot file and pdf.
build/X86/sim/simulate.cc:192: info: Entering event queue @ 0.  Starting simulation...
build/X86/arch/x86/cpuid.cc:180: warn: x86 cpuid family 0x0000: unimplemented function 13
build/X86/sim/mem_state.cc:443: info: Increasing stack size by one page.
build/X86/sim/syscall_emul.cc:74: warn: ignoring syscall mprotect(...)
build/X86/sim/syscall_emul.cc:74: warn: ignoring syscall mprotect(...)
build/X86/sim/syscall_emul.cc:74: warn: ignoring syscall mprotect(...)
build/X86/sim/syscall_emul.cc:74: warn: ignoring syscall mprotect(...)
build/X86/sim/syscall_emul.cc:74: warn: ignoring syscall mprotect(...)
build/X86/sim/syscall_emul.cc:74: warn: ignoring syscall mprotect(...)
build/X86/sim/syscall_emul.cc:74: warn: ignoring syscall mprotect(...)
build/X86/sim/syscall_emul.cc:74: warn: ignoring syscall mprotect(...)
build/X86/sim/syscall_emul.cc:74: warn: ignoring syscall set_robust_list(...)
build/X86/sim/syscall_emul.cc:85: warn: ignoring syscall rt_sigaction(...)
      (further warnings will be suppressed)
build/X86/sim/syscall_emul.cc:85: warn: ignoring syscall rt_sigprocmask(...)
      (further warnings will be suppressed)
build/X86/sim/mem_state.cc:443: info: Increasing stack size by one page.
build/X86/arch/x86/generated/exec-ns.cc.inc:27: warn: instruction 'palignr_Vdq_Wdq_Ib' unimplemented
build/X86/arch/x86/generated/exec-ns.cc.inc:27: warn: instruction 'palignr_Vdq_Wdq_Ib' unimplemented
build/X86/arch/x86/generated/exec-ns.cc.inc:27: warn: instruction 'palignr_Vdq_Wdq_Ib' unimplemented
build/X86/arch/x86/generated/exec-ns.cc.inc:27: warn: instruction 'palignr_Vdq_Wdq_Ib' unimplemented
Running on 9 cores. with 409600 values
build/X86/sim/syscall_emul.cc:74: warn: ignoring syscall mprotect(...)
build/X86/sim/power_state.cc:105: warn: PowerState: Already in the requested power state, request ignored
build/X86/sim/syscall_emul.cc:74: warn: ignoring syscall set_robust_list(...)
build/X86/sim/syscall_emul.cc:74: warn: ignoring syscall mprotect(...)
build/X86/sim/syscall_emul.cc:74: warn: ignoring syscall set_robust_list(...)
build/X86/sim/syscall_emul.cc:74: warn: ignoring syscall mprotect(...)
build/X86/sim/syscall_emul.cc:74: warn: ignoring syscall set_robust_list(...)
build/X86/sim/syscall_emul.cc:74: warn: ignoring syscall mprotect(...)
build/X86/sim/syscall_emul.cc:74: warn: ignoring syscall set_robust_list(...)
build/X86/sim/syscall_emul.cc:74: warn: ignoring syscall mprotect(...)
build/X86/sim/syscall_emul.cc:74: warn: ignoring syscall set_robust_list(...)
build/X86/sim/syscall_emul.cc:74: warn: ignoring syscall mprotect(...)
build/X86/sim/syscall_emul.cc:74: warn: ignoring syscall set_robust_list(...)
build/X86/sim/syscall_emul.cc:74: warn: ignoring syscall mprotect(...)
build/X86/sim/syscall_emul.cc:74: warn: ignoring syscall set_robust_list(...)
build/X86/sim/syscall_emul.cc:74: warn: ignoring syscall mprotect(...)
build/X86/sim/syscall_emul.cc:74: warn: ignoring syscall set_robust_list(...)
build/X86/sim/syscall_emul.cc:74: warn: ignoring syscall mprotect(...)
build/X86/sim/syscall_emul.cc:74: warn: ignoring syscall mprotect(...)
build/X86/sim/syscall_emul.cc:74: warn: ignoring syscall mprotect(...)
build/X86/sim/syscall_emul.cc:74: warn: ignoring syscall mprotect(...)
build/X86/sim/syscall_emul.cc:74: warn: ignoring syscall mprotect(...)
build/X86/sim/syscall_emul.cc:74: warn: ignoring syscall mprotect(...)
build/X86/sim/syscall_emul.cc:74: warn: ignoring syscall mprotect(...)
build/X86/sim/process.cc:333: warn: Process::allocateMem: addr 0x7ffff7d1b000 already mapped
build/X86/sim/syscall_emul.cc:74: warn: ignoring syscall madvise(...)
build/X86/sim/syscall_emul.cc:74: warn: ignoring syscall madvise(...)
build/X86/sim/syscall_emul.cc:74: warn: ignoring syscall madvise(...)
build/X86/sim/syscall_emul.cc:74: warn: ignoring syscall madvise(...)
build/X86/sim/syscall_emul.cc:74: warn: ignoring syscall madvise(...)
build/X86/sim/syscall_emul.cc:74: warn: ignoring syscall madvise(...)
build/X86/sim/syscall_emul.cc:74: warn: ignoring syscall madvise(...)
Waiting for other threads to complete
build/X86/sim/syscall_emul.cc:74: warn: ignoring syscall madvise(...)
Validating...Success!
	Command being timed: "./build/X86/gem5.debug /home/gem5/gem5_new/configs/mytest2/hello.py -f /home/gem5/gem5_new/ext/CMSpec/CMSpec/test/myTests/tc1_l1l2_llc_9.xml -c 9 -b Threads"
	User time (seconds): 3050.45
	System time (seconds): 0.24
	Percent of CPU this job got: 99%
	Elapsed (wall clock) time (h:mm:ss or m:ss): 50:50.87
	Average shared text size (kbytes): 0
	Average unshared data size (kbytes): 0
	Average stack size (kbytes): 0
	Average total size (kbytes): 0
	Maximum resident set size (kbytes): 406800
	Average resident set size (kbytes): 0
	Major (requiring I/O) page faults: 0
	Minor (reclaiming a frame) page faults: 88065
	Voluntary context switches: 9
	Involuntary context switches: 14941
	Swaps: 0
	File system inputs: 0
	File system outputs: 2576
	Socket messages sent: 0
	Socket messages received: 0
	Signals delivered: 0
	Page size (bytes): 4096
	Exit status: 0
10
/home/gem5/gem5_new/ext/CMSpec/CMSpec/test/myTests/tc1_l1l2_llc_10.xml
Global frequency set at 1000000000000 ticks per second
build/X86/mem/dram_interface.cc:690: warn: DRAM device capacity (8192 Mbytes) does not match the address range assigned (4096 Mbytes)
simpleCache
DEBUG COH Protocol Name in XML header: MSI
/home/gem5/gem5_new/ext/CMSpec/CMSpec/test/myTests/tc1_l1l2_llc_10.xml
FSM path: /home/gem5/gem5_new/ext/CMSpec/CMSpec/Protocols_FSM/
simpleCache
simpleCache
simpleCache
simpleCache
simpleCache
simpleCache
simpleCache
simpleCache
simpleCache
build/X86/mem/coherent_xbar.cc:140: warn: CoherentXBar board.cache_hierarchy.membus has no snooping ports attached!
0: board.remote_gdb: listening for remote gdb on port 7000
gem5 Simulator System.  https://www.gem5.org
gem5 is copyrighted software; use the --copyright option for details.

gem5 version 22.1.0.0
gem5 compiled Jun 16 2024 22:09:04
gem5 started Jun 17 2024 05:33:39
gem5 executing on gem5-VirtualBox, pid 353418
command line: ./build/X86/gem5.debug /home/gem5/gem5_new/configs/mytest2/hello.py -f /home/gem5/gem5_new/ext/CMSpec/CMSpec/test/myTests/tc1_l1l2_llc_10.xml -c 10 -b Threads

warn: The simulate package is still in a beta state. The gem5 project does not guarantee the APIs within this package will remain consistent across upcoming releases.
warn: No dot file generated. Please install pydot to generate the dot file and pdf.
build/X86/sim/simulate.cc:192: info: Entering event queue @ 0.  Starting simulation...
build/X86/arch/x86/cpuid.cc:180: warn: x86 cpuid family 0x0000: unimplemented function 13
build/X86/sim/mem_state.cc:443: info: Increasing stack size by one page.
build/X86/sim/syscall_emul.cc:74: warn: ignoring syscall mprotect(...)
build/X86/sim/syscall_emul.cc:74: warn: ignoring syscall mprotect(...)
build/X86/sim/syscall_emul.cc:74: warn: ignoring syscall mprotect(...)
build/X86/sim/syscall_emul.cc:74: warn: ignoring syscall mprotect(...)
build/X86/sim/syscall_emul.cc:74: warn: ignoring syscall mprotect(...)
build/X86/sim/syscall_emul.cc:74: warn: ignoring syscall mprotect(...)
build/X86/sim/syscall_emul.cc:74: warn: ignoring syscall mprotect(...)
build/X86/sim/syscall_emul.cc:74: warn: ignoring syscall mprotect(...)
build/X86/sim/syscall_emul.cc:74: warn: ignoring syscall set_robust_list(...)
build/X86/sim/syscall_emul.cc:85: warn: ignoring syscall rt_sigaction(...)
      (further warnings will be suppressed)
build/X86/sim/syscall_emul.cc:85: warn: ignoring syscall rt_sigprocmask(...)
      (further warnings will be suppressed)
build/X86/sim/mem_state.cc:443: info: Increasing stack size by one page.
build/X86/arch/x86/generated/exec-ns.cc.inc:27: warn: instruction 'palignr_Vdq_Wdq_Ib' unimplemented
build/X86/arch/x86/generated/exec-ns.cc.inc:27: warn: instruction 'palignr_Vdq_Wdq_Ib' unimplemented
build/X86/arch/x86/generated/exec-ns.cc.inc:27: warn: instruction 'palignr_Vdq_Wdq_Ib' unimplemented
build/X86/arch/x86/generated/exec-ns.cc.inc:27: warn: instruction 'palignr_Vdq_Wdq_Ib' unimplemented
Running on 10 cores. with 409600 values
build/X86/sim/syscall_emul.cc:74: warn: ignoring syscall mprotect(...)
build/X86/sim/power_state.cc:105: warn: PowerState: Already in the requested power state, request ignored
build/X86/sim/syscall_emul.cc:74: warn: ignoring syscall set_robust_list(...)
build/X86/sim/syscall_emul.cc:74: warn: ignoring syscall mprotect(...)
build/X86/sim/syscall_emul.cc:74: warn: ignoring syscall set_robust_list(...)
build/X86/sim/syscall_emul.cc:74: warn: ignoring syscall mprotect(...)
build/X86/sim/syscall_emul.cc:74: warn: ignoring syscall set_robust_list(...)
build/X86/sim/syscall_emul.cc:74: warn: ignoring syscall mprotect(...)
build/X86/sim/syscall_emul.cc:74: warn: ignoring syscall set_robust_list(...)
build/X86/sim/syscall_emul.cc:74: warn: ignoring syscall mprotect(...)
build/X86/sim/syscall_emul.cc:74: warn: ignoring syscall set_robust_list(...)
build/X86/sim/syscall_emul.cc:74: warn: ignoring syscall mprotect(...)
build/X86/sim/syscall_emul.cc:74: warn: ignoring syscall set_robust_list(...)
build/X86/sim/syscall_emul.cc:74: warn: ignoring syscall mprotect(...)
build/X86/sim/syscall_emul.cc:74: warn: ignoring syscall set_robust_list(...)
build/X86/sim/syscall_emul.cc:74: warn: ignoring syscall mprotect(...)
build/X86/sim/syscall_emul.cc:74: warn: ignoring syscall set_robust_list(...)
build/X86/sim/syscall_emul.cc:74: warn: ignoring syscall mprotect(...)
build/X86/sim/syscall_emul.cc:74: warn: ignoring syscall set_robust_list(...)
Waiting for other threads to complete
build/X86/sim/process.cc:333: warn: Process::allocateMem: addr 0x7ffff7c6f000 already mapped
build/X86/sim/syscall_emul.cc:74: warn: ignoring syscall mprotect(...)
build/X86/sim/syscall_emul.cc:74: warn: ignoring syscall mprotect(...)
build/X86/sim/syscall_emul.cc:74: warn: ignoring syscall mprotect(...)
build/X86/sim/syscall_emul.cc:74: warn: ignoring syscall mprotect(...)
build/X86/sim/syscall_emul.cc:74: warn: ignoring syscall mprotect(...)
build/X86/sim/syscall_emul.cc:74: warn: ignoring syscall mprotect(...)
build/X86/sim/syscall_emul.cc:74: warn: ignoring syscall mprotect(...)
build/X86/sim/syscall_emul.cc:74: warn: ignoring syscall mprotect(...)
build/X86/sim/syscall_emul.cc:74: warn: ignoring syscall mprotect(...)
build/X86/sim/process.cc:333: warn: Process::allocateMem: addr 0x7ffff7c70000 already mapped
build/X86/sim/process.cc:333: warn: Process::allocateMem: addr 0x7ffff7d2d000 already mapped
build/X86/sim/process.cc:333: warn: Process::allocateMem: addr 0x7ffff7d2d000 already mapped
build/X86/sim/process.cc:333: warn: Process::allocateMem: addr 0x7ffff7d1b000 already mapped
build/X86/sim/process.cc:333: warn: Process::allocateMem: addr 0x7ffff7d1b000 already mapped
build/X86/sim/syscall_emul.cc:74: warn: ignoring syscall madvise(...)
build/X86/sim/syscall_emul.cc:74: warn: ignoring syscall madvise(...)
build/X86/sim/syscall_emul.cc:74: warn: ignoring syscall madvise(...)
build/X86/sim/syscall_emul.cc:74: warn: ignoring syscall madvise(...)
build/X86/sim/syscall_emul.cc:74: warn: ignoring syscall madvise(...)
build/X86/sim/syscall_emul.cc:74: warn: ignoring syscall madvise(...)
build/X86/sim/syscall_emul.cc:74: warn: ignoring syscall madvise(...)
build/X86/sim/syscall_emul.cc:74: warn: ignoring syscall madvise(...)
build/X86/sim/syscall_emul.cc:74: warn: ignoring syscall madvise(...)
Validating...Success!
	Command being timed: "./build/X86/gem5.debug /home/gem5/gem5_new/configs/mytest2/hello.py -f /home/gem5/gem5_new/ext/CMSpec/CMSpec/test/myTests/tc1_l1l2_llc_10.xml -c 10 -b Threads"
	User time (seconds): 3312.13
	System time (seconds): 0.26
	Percent of CPU this job got: 99%
	Elapsed (wall clock) time (h:mm:ss or m:ss): 55:12.81
	Average shared text size (kbytes): 0
	Average unshared data size (kbytes): 0
	Average stack size (kbytes): 0
	Average total size (kbytes): 0
	Maximum resident set size (kbytes): 451324
	Average resident set size (kbytes): 0
	Major (requiring I/O) page faults: 0
	Minor (reclaiming a frame) page faults: 99073
	Voluntary context switches: 10
	Involuntary context switches: 17971
	Swaps: 0
	File system inputs: 0
	File system outputs: 2824
	Socket messages sent: 0
	Socket messages received: 0
	Signals delivered: 0
	Page size (bytes): 4096
	Exit status: 0
11
/home/gem5/gem5_new/ext/CMSpec/CMSpec/test/myTests/tc1_l1l2_llc_11.xml
Global frequency set at 1000000000000 ticks per second
build/X86/mem/dram_interface.cc:690: warn: DRAM device capacity (8192 Mbytes) does not match the address range assigned (4096 Mbytes)
simpleCache
DEBUG COH Protocol Name in XML header: MSI
/home/gem5/gem5_new/ext/CMSpec/CMSpec/test/myTests/tc1_l1l2_llc_11.xml
FSM path: /home/gem5/gem5_new/ext/CMSpec/CMSpec/Protocols_FSM/
simpleCache
simpleCache
simpleCache
simpleCache
simpleCache
simpleCache
simpleCache
simpleCache
simpleCache
simpleCache
build/X86/mem/coherent_xbar.cc:140: warn: CoherentXBar board.cache_hierarchy.membus has no snooping ports attached!
0: board.remote_gdb: listening for remote gdb on port 7000
gem5 Simulator System.  https://www.gem5.org
gem5 is copyrighted software; use the --copyright option for details.

gem5 version 22.1.0.0
gem5 compiled Jun 16 2024 22:09:04
gem5 started Jun 17 2024 06:28:52
gem5 executing on gem5-VirtualBox, pid 353566
command line: ./build/X86/gem5.debug /home/gem5/gem5_new/configs/mytest2/hello.py -f /home/gem5/gem5_new/ext/CMSpec/CMSpec/test/myTests/tc1_l1l2_llc_11.xml -c 11 -b Threads

warn: The simulate package is still in a beta state. The gem5 project does not guarantee the APIs within this package will remain consistent across upcoming releases.
warn: No dot file generated. Please install pydot to generate the dot file and pdf.
build/X86/sim/simulate.cc:192: info: Entering event queue @ 0.  Starting simulation...
build/X86/arch/x86/cpuid.cc:180: warn: x86 cpuid family 0x0000: unimplemented function 13
build/X86/sim/mem_state.cc:443: info: Increasing stack size by one page.
build/X86/sim/syscall_emul.cc:74: warn: ignoring syscall mprotect(...)
build/X86/sim/syscall_emul.cc:74: warn: ignoring syscall mprotect(...)
build/X86/sim/syscall_emul.cc:74: warn: ignoring syscall mprotect(...)
build/X86/sim/syscall_emul.cc:74: warn: ignoring syscall mprotect(...)
build/X86/sim/syscall_emul.cc:74: warn: ignoring syscall mprotect(...)
build/X86/sim/syscall_emul.cc:74: warn: ignoring syscall mprotect(...)
build/X86/sim/syscall_emul.cc:74: warn: ignoring syscall mprotect(...)
build/X86/sim/syscall_emul.cc:74: warn: ignoring syscall mprotect(...)
build/X86/sim/syscall_emul.cc:74: warn: ignoring syscall set_robust_list(...)
build/X86/sim/syscall_emul.cc:85: warn: ignoring syscall rt_sigaction(...)
      (further warnings will be suppressed)
build/X86/sim/syscall_emul.cc:85: warn: ignoring syscall rt_sigprocmask(...)
      (further warnings will be suppressed)
build/X86/sim/mem_state.cc:443: info: Increasing stack size by one page.
build/X86/arch/x86/generated/exec-ns.cc.inc:27: warn: instruction 'palignr_Vdq_Wdq_Ib' unimplemented
build/X86/arch/x86/generated/exec-ns.cc.inc:27: warn: instruction 'palignr_Vdq_Wdq_Ib' unimplemented
build/X86/arch/x86/generated/exec-ns.cc.inc:27: warn: instruction 'palignr_Vdq_Wdq_Ib' unimplemented
build/X86/arch/x86/generated/exec-ns.cc.inc:27: warn: instruction 'palignr_Vdq_Wdq_Ib' unimplemented
Running on 11 cores. with 409600 values
build/X86/sim/syscall_emul.cc:74: warn: ignoring syscall mprotect(...)
build/X86/sim/power_state.cc:105: warn: PowerState: Already in the requested power state, request ignored
build/X86/sim/syscall_emul.cc:74: warn: ignoring syscall set_robust_list(...)
build/X86/sim/syscall_emul.cc:74: warn: ignoring syscall mprotect(...)
build/X86/sim/syscall_emul.cc:74: warn: ignoring syscall set_robust_list(...)
build/X86/sim/syscall_emul.cc:74: warn: ignoring syscall mprotect(...)
build/X86/sim/syscall_emul.cc:74: warn: ignoring syscall set_robust_list(...)
build/X86/sim/syscall_emul.cc:74: warn: ignoring syscall mprotect(...)
build/X86/sim/syscall_emul.cc:74: warn: ignoring syscall set_robust_list(...)
build/X86/sim/syscall_emul.cc:74: warn: ignoring syscall mprotect(...)
build/X86/sim/syscall_emul.cc:74: warn: ignoring syscall set_robust_list(...)
build/X86/sim/syscall_emul.cc:74: warn: ignoring syscall mprotect(...)
build/X86/sim/syscall_emul.cc:74: warn: ignoring syscall set_robust_list(...)
build/X86/sim/syscall_emul.cc:74: warn: ignoring syscall mprotect(...)
build/X86/sim/syscall_emul.cc:74: warn: ignoring syscall set_robust_list(...)
build/X86/sim/syscall_emul.cc:74: warn: ignoring syscall mprotect(...)
build/X86/sim/syscall_emul.cc:74: warn: ignoring syscall set_robust_list(...)
build/X86/sim/syscall_emul.cc:74: warn: ignoring syscall mprotect(...)
build/X86/sim/syscall_emul.cc:74: warn: ignoring syscall set_robust_list(...)
build/X86/sim/syscall_emul.cc:74: warn: ignoring syscall mprotect(...)
build/X86/sim/syscall_emul.cc:74: warn: ignoring syscall set_robust_list(...)
build/X86/sim/process.cc:333: warn: Process::allocateMem: addr 0x7ffff7c6f000 already mapped
build/X86/sim/syscall_emul.cc:74: warn: ignoring syscall mprotect(...)
build/X86/sim/syscall_emul.cc:74: warn: ignoring syscall mprotect(...)
build/X86/sim/syscall_emul.cc:74: warn: ignoring syscall mprotect(...)
build/X86/sim/syscall_emul.cc:74: warn: ignoring syscall mprotect(...)
build/X86/sim/syscall_emul.cc:74: warn: ignoring syscall mprotect(...)
build/X86/sim/syscall_emul.cc:74: warn: ignoring syscall mprotect(...)
build/X86/sim/syscall_emul.cc:74: warn: ignoring syscall mprotect(...)
build/X86/sim/syscall_emul.cc:74: warn: ignoring syscall mprotect(...)
build/X86/sim/syscall_emul.cc:74: warn: ignoring syscall mprotect(...)
build/X86/sim/process.cc:333: warn: Process::allocateMem: addr 0x7ffff7c70000 already mapped
build/X86/sim/syscall_emul.cc:74: warn: ignoring syscall mprotect(...)
Waiting for other threads to complete
build/X86/sim/syscall_emul.cc:74: warn: ignoring syscall madvise(...)
build/X86/sim/syscall_emul.cc:74: warn: ignoring syscall madvise(...)
build/X86/sim/syscall_emul.cc:74: warn: ignoring syscall madvise(...)
build/X86/sim/syscall_emul.cc:74: warn: ignoring syscall madvise(...)
build/X86/sim/syscall_emul.cc:74: warn: ignoring syscall madvise(...)
build/X86/sim/syscall_emul.cc:74: warn: ignoring syscall madvise(...)
build/X86/sim/syscall_emul.cc:74: warn: ignoring syscall madvise(...)
build/X86/sim/syscall_emul.cc:74: warn: ignoring syscall madvise(...)
build/X86/sim/syscall_emul.cc:74: warn: ignoring syscall madvise(...)
build/X86/sim/syscall_emul.cc:74: warn: ignoring syscall madvise(...)
Validating...Success!
	Command being timed: "./build/X86/gem5.debug /home/gem5/gem5_new/configs/mytest2/hello.py -f /home/gem5/gem5_new/ext/CMSpec/CMSpec/test/myTests/tc1_l1l2_llc_11.xml -c 11 -b Threads"
	User time (seconds): 3460.98
	System time (seconds): 0.27
	Percent of CPU this job got: 99%
	Elapsed (wall clock) time (h:mm:ss or m:ss): 57:41.46
	Average shared text size (kbytes): 0
	Average unshared data size (kbytes): 0
	Average stack size (kbytes): 0
	Average total size (kbytes): 0
	Maximum resident set size (kbytes): 457860
	Average resident set size (kbytes): 0
	Major (requiring I/O) page faults: 0
	Minor (reclaiming a frame) page faults: 100639
	Voluntary context switches: 9
	Involuntary context switches: 16507
	Swaps: 0
	File system inputs: 0
	File system outputs: 3120
	Socket messages sent: 0
	Socket messages received: 0
	Signals delivered: 0
	Page size (bytes): 4096
	Exit status: 0
12
/home/gem5/gem5_new/ext/CMSpec/CMSpec/test/myTests/tc1_l1l2_llc_12.xml
Global frequency set at 1000000000000 ticks per second
build/X86/mem/dram_interface.cc:690: warn: DRAM device capacity (8192 Mbytes) does not match the address range assigned (4096 Mbytes)
simpleCache
DEBUG COH Protocol Name in XML header: MSI
/home/gem5/gem5_new/ext/CMSpec/CMSpec/test/myTests/tc1_l1l2_llc_12.xml
FSM path: /home/gem5/gem5_new/ext/CMSpec/CMSpec/Protocols_FSM/
simpleCache
simpleCache
simpleCache
simpleCache
simpleCache
simpleCache
simpleCache
simpleCache
simpleCache
simpleCache
simpleCache
build/X86/mem/coherent_xbar.cc:140: warn: CoherentXBar board.cache_hierarchy.membus has no snooping ports attached!
0: board.remote_gdb: listening for remote gdb on port 7000
gem5 Simulator System.  https://www.gem5.org
gem5 is copyrighted software; use the --copyright option for details.

gem5 version 22.1.0.0
gem5 compiled Jun 16 2024 22:09:04
gem5 started Jun 17 2024 07:26:33
gem5 executing on gem5-VirtualBox, pid 353619
command line: ./build/X86/gem5.debug /home/gem5/gem5_new/configs/mytest2/hello.py -f /home/gem5/gem5_new/ext/CMSpec/CMSpec/test/myTests/tc1_l1l2_llc_12.xml -c 12 -b Threads

warn: The simulate package is still in a beta state. The gem5 project does not guarantee the APIs within this package will remain consistent across upcoming releases.
warn: No dot file generated. Please install pydot to generate the dot file and pdf.
build/X86/sim/simulate.cc:192: info: Entering event queue @ 0.  Starting simulation...
build/X86/arch/x86/cpuid.cc:180: warn: x86 cpuid family 0x0000: unimplemented function 13
build/X86/sim/mem_state.cc:443: info: Increasing stack size by one page.
build/X86/sim/syscall_emul.cc:74: warn: ignoring syscall mprotect(...)
build/X86/sim/syscall_emul.cc:74: warn: ignoring syscall mprotect(...)
build/X86/sim/syscall_emul.cc:74: warn: ignoring syscall mprotect(...)
build/X86/sim/syscall_emul.cc:74: warn: ignoring syscall mprotect(...)
build/X86/sim/syscall_emul.cc:74: warn: ignoring syscall mprotect(...)
build/X86/sim/syscall_emul.cc:74: warn: ignoring syscall mprotect(...)
build/X86/sim/syscall_emul.cc:74: warn: ignoring syscall mprotect(...)
build/X86/sim/syscall_emul.cc:74: warn: ignoring syscall mprotect(...)
build/X86/sim/syscall_emul.cc:74: warn: ignoring syscall set_robust_list(...)
build/X86/sim/syscall_emul.cc:85: warn: ignoring syscall rt_sigaction(...)
      (further warnings will be suppressed)
build/X86/sim/syscall_emul.cc:85: warn: ignoring syscall rt_sigprocmask(...)
      (further warnings will be suppressed)
build/X86/sim/mem_state.cc:443: info: Increasing stack size by one page.
build/X86/arch/x86/generated/exec-ns.cc.inc:27: warn: instruction 'palignr_Vdq_Wdq_Ib' unimplemented
build/X86/arch/x86/generated/exec-ns.cc.inc:27: warn: instruction 'palignr_Vdq_Wdq_Ib' unimplemented
build/X86/arch/x86/generated/exec-ns.cc.inc:27: warn: instruction 'palignr_Vdq_Wdq_Ib' unimplemented
build/X86/arch/x86/generated/exec-ns.cc.inc:27: warn: instruction 'palignr_Vdq_Wdq_Ib' unimplemented
Running on 12 cores. with 409600 values
build/X86/sim/syscall_emul.cc:74: warn: ignoring syscall mprotect(...)
build/X86/sim/power_state.cc:105: warn: PowerState: Already in the requested power state, request ignored
build/X86/sim/syscall_emul.cc:74: warn: ignoring syscall set_robust_list(...)
build/X86/sim/syscall_emul.cc:74: warn: ignoring syscall mprotect(...)
build/X86/sim/syscall_emul.cc:74: warn: ignoring syscall set_robust_list(...)
build/X86/sim/syscall_emul.cc:74: warn: ignoring syscall mprotect(...)
build/X86/sim/syscall_emul.cc:74: warn: ignoring syscall set_robust_list(...)
build/X86/sim/syscall_emul.cc:74: warn: ignoring syscall mprotect(...)
build/X86/sim/syscall_emul.cc:74: warn: ignoring syscall set_robust_list(...)
build/X86/sim/syscall_emul.cc:74: warn: ignoring syscall mprotect(...)
build/X86/sim/syscall_emul.cc:74: warn: ignoring syscall set_robust_list(...)
build/X86/sim/syscall_emul.cc:74: warn: ignoring syscall mprotect(...)
build/X86/sim/syscall_emul.cc:74: warn: ignoring syscall set_robust_list(...)
build/X86/sim/syscall_emul.cc:74: warn: ignoring syscall mprotect(...)
build/X86/sim/syscall_emul.cc:74: warn: ignoring syscall set_robust_list(...)
build/X86/sim/syscall_emul.cc:74: warn: ignoring syscall mprotect(...)
build/X86/sim/syscall_emul.cc:74: warn: ignoring syscall set_robust_list(...)
build/X86/sim/syscall_emul.cc:74: warn: ignoring syscall mprotect(...)
build/X86/sim/syscall_emul.cc:74: warn: ignoring syscall set_robust_list(...)
build/X86/sim/syscall_emul.cc:74: warn: ignoring syscall mprotect(...)
build/X86/sim/syscall_emul.cc:74: warn: ignoring syscall set_robust_list(...)
build/X86/sim/syscall_emul.cc:74: warn: ignoring syscall mprotect(...)
build/X86/sim/syscall_emul.cc:74: warn: ignoring syscall set_robust_list(...)
Waiting for other threads to complete
build/X86/sim/process.cc:333: warn: Process::allocateMem: addr 0x7ffff7c6f000 already mapped
build/X86/sim/syscall_emul.cc:74: warn: ignoring syscall mprotect(...)
build/X86/sim/syscall_emul.cc:74: warn: ignoring syscall mprotect(...)
build/X86/sim/syscall_emul.cc:74: warn: ignoring syscall mprotect(...)
build/X86/sim/syscall_emul.cc:74: warn: ignoring syscall mprotect(...)
build/X86/sim/syscall_emul.cc:74: warn: ignoring syscall mprotect(...)
build/X86/sim/syscall_emul.cc:74: warn: ignoring syscall mprotect(...)
build/X86/sim/syscall_emul.cc:74: warn: ignoring syscall mprotect(...)
build/X86/sim/syscall_emul.cc:74: warn: ignoring syscall mprotect(...)
build/X86/sim/syscall_emul.cc:74: warn: ignoring syscall mprotect(...)
build/X86/sim/syscall_emul.cc:74: warn: ignoring syscall mprotect(...)
build/X86/sim/process.cc:333: warn: Process::allocateMem: addr 0x7ffff7c70000 already mapped
build/X86/sim/syscall_emul.cc:74: warn: ignoring syscall mprotect(...)
build/X86/sim/process.cc:333: warn: Process::allocateMem: addr 0x7ffff7d2d000 already mapped
build/X86/sim/process.cc:333: warn: Process::allocateMem: addr 0x7ffff7d1b000 already mapped
build/X86/sim/process.cc:333: warn: Process::allocateMem: addr 0x7ffff7d1b000 already mapped
build/X86/sim/syscall_emul.cc:74: warn: ignoring syscall madvise(...)
build/X86/sim/syscall_emul.cc:74: warn: ignoring syscall madvise(...)
build/X86/sim/syscall_emul.cc:74: warn: ignoring syscall madvise(...)
build/X86/sim/syscall_emul.cc:74: warn: ignoring syscall madvise(...)
build/X86/sim/syscall_emul.cc:74: warn: ignoring syscall madvise(...)
build/X86/sim/syscall_emul.cc:74: warn: ignoring syscall madvise(...)
build/X86/sim/syscall_emul.cc:74: warn: ignoring syscall madvise(...)
build/X86/sim/syscall_emul.cc:74: warn: ignoring syscall madvise(...)
build/X86/sim/syscall_emul.cc:74: warn: ignoring syscall madvise(...)
build/X86/sim/syscall_emul.cc:74: warn: ignoring syscall madvise(...)
build/X86/sim/syscall_emul.cc:74: warn: ignoring syscall madvise(...)
Validating...Success!
	Command being timed: "./build/X86/gem5.debug /home/gem5/gem5_new/configs/mytest2/hello.py -f /home/gem5/gem5_new/ext/CMSpec/CMSpec/test/myTests/tc1_l1l2_llc_12.xml -c 12 -b Threads"
	User time (seconds): 3682.57
	System time (seconds): 0.28
	Percent of CPU this job got: 99%
	Elapsed (wall clock) time (h:mm:ss or m:ss): 1:01:23
	Average shared text size (kbytes): 0
	Average unshared data size (kbytes): 0
	Average stack size (kbytes): 0
	Average total size (kbytes): 0
	Maximum resident set size (kbytes): 493356
	Average resident set size (kbytes): 0
	Major (requiring I/O) page faults: 0
	Minor (reclaiming a frame) page faults: 109609
	Voluntary context switches: 9
	Involuntary context switches: 21494
	Swaps: 0
	File system inputs: 0
	File system outputs: 3360
	Socket messages sent: 0
	Socket messages received: 0
	Signals delivered: 0
	Page size (bytes): 4096
	Exit status: 0
13
/home/gem5/gem5_new/ext/CMSpec/CMSpec/test/myTests/tc1_l1l2_llc_13.xml
Global frequency set at 1000000000000 ticks per second
build/X86/mem/dram_interface.cc:690: warn: DRAM device capacity (8192 Mbytes) does not match the address range assigned (4096 Mbytes)
simpleCache
DEBUG COH Protocol Name in XML header: MSI
/home/gem5/gem5_new/ext/CMSpec/CMSpec/test/myTests/tc1_l1l2_llc_13.xml
FSM path: /home/gem5/gem5_new/ext/CMSpec/CMSpec/Protocols_FSM/
simpleCache
simpleCache
simpleCache
simpleCache
simpleCache
simpleCache
simpleCache
simpleCache
simpleCache
simpleCache
simpleCache
simpleCache
build/X86/mem/coherent_xbar.cc:140: warn: CoherentXBar board.cache_hierarchy.membus has no snooping ports attached!
0: board.remote_gdb: listening for remote gdb on port 7000
gem5 Simulator System.  https://www.gem5.org
gem5 is copyrighted software; use the --copyright option for details.

gem5 version 22.1.0.0
gem5 compiled Jun 16 2024 22:09:04
gem5 started Jun 17 2024 08:27:56
gem5 executing on gem5-VirtualBox, pid 353736
command line: ./build/X86/gem5.debug /home/gem5/gem5_new/configs/mytest2/hello.py -f /home/gem5/gem5_new/ext/CMSpec/CMSpec/test/myTests/tc1_l1l2_llc_13.xml -c 13 -b Threads

warn: The simulate package is still in a beta state. The gem5 project does not guarantee the APIs within this package will remain consistent across upcoming releases.
warn: No dot file generated. Please install pydot to generate the dot file and pdf.
build/X86/sim/simulate.cc:192: info: Entering event queue @ 0.  Starting simulation...
build/X86/arch/x86/cpuid.cc:180: warn: x86 cpuid family 0x0000: unimplemented function 13
build/X86/sim/mem_state.cc:443: info: Increasing stack size by one page.
build/X86/sim/syscall_emul.cc:74: warn: ignoring syscall mprotect(...)
build/X86/sim/syscall_emul.cc:74: warn: ignoring syscall mprotect(...)
build/X86/sim/syscall_emul.cc:74: warn: ignoring syscall mprotect(...)
build/X86/sim/syscall_emul.cc:74: warn: ignoring syscall mprotect(...)
build/X86/sim/syscall_emul.cc:74: warn: ignoring syscall mprotect(...)
build/X86/sim/syscall_emul.cc:74: warn: ignoring syscall mprotect(...)
build/X86/sim/syscall_emul.cc:74: warn: ignoring syscall mprotect(...)
build/X86/sim/syscall_emul.cc:74: warn: ignoring syscall mprotect(...)
build/X86/sim/syscall_emul.cc:74: warn: ignoring syscall set_robust_list(...)
build/X86/sim/syscall_emul.cc:85: warn: ignoring syscall rt_sigaction(...)
      (further warnings will be suppressed)
build/X86/sim/syscall_emul.cc:85: warn: ignoring syscall rt_sigprocmask(...)
      (further warnings will be suppressed)
build/X86/sim/mem_state.cc:443: info: Increasing stack size by one page.
build/X86/arch/x86/generated/exec-ns.cc.inc:27: warn: instruction 'palignr_Vdq_Wdq_Ib' unimplemented
build/X86/arch/x86/generated/exec-ns.cc.inc:27: warn: instruction 'palignr_Vdq_Wdq_Ib' unimplemented
build/X86/arch/x86/generated/exec-ns.cc.inc:27: warn: instruction 'palignr_Vdq_Wdq_Ib' unimplemented
build/X86/arch/x86/generated/exec-ns.cc.inc:27: warn: instruction 'palignr_Vdq_Wdq_Ib' unimplemented
Running on 13 cores. with 409600 values
build/X86/sim/syscall_emul.cc:74: warn: ignoring syscall mprotect(...)
build/X86/sim/power_state.cc:105: warn: PowerState: Already in the requested power state, request ignored
build/X86/sim/syscall_emul.cc:74: warn: ignoring syscall set_robust_list(...)
build/X86/sim/syscall_emul.cc:74: warn: ignoring syscall mprotect(...)
build/X86/sim/syscall_emul.cc:74: warn: ignoring syscall set_robust_list(...)
build/X86/sim/syscall_emul.cc:74: warn: ignoring syscall mprotect(...)
build/X86/sim/syscall_emul.cc:74: warn: ignoring syscall set_robust_list(...)
build/X86/sim/syscall_emul.cc:74: warn: ignoring syscall mprotect(...)
build/X86/sim/syscall_emul.cc:74: warn: ignoring syscall set_robust_list(...)
build/X86/sim/syscall_emul.cc:74: warn: ignoring syscall mprotect(...)
build/X86/sim/syscall_emul.cc:74: warn: ignoring syscall set_robust_list(...)
build/X86/sim/syscall_emul.cc:74: warn: ignoring syscall mprotect(...)
build/X86/sim/syscall_emul.cc:74: warn: ignoring syscall set_robust_list(...)
build/X86/sim/syscall_emul.cc:74: warn: ignoring syscall mprotect(...)
build/X86/sim/syscall_emul.cc:74: warn: ignoring syscall set_robust_list(...)
build/X86/sim/syscall_emul.cc:74: warn: ignoring syscall mprotect(...)
build/X86/sim/syscall_emul.cc:74: warn: ignoring syscall set_robust_list(...)
build/X86/sim/syscall_emul.cc:74: warn: ignoring syscall mprotect(...)
build/X86/sim/syscall_emul.cc:74: warn: ignoring syscall set_robust_list(...)
build/X86/sim/syscall_emul.cc:74: warn: ignoring syscall mprotect(...)
build/X86/sim/syscall_emul.cc:74: warn: ignoring syscall set_robust_list(...)
build/X86/sim/syscall_emul.cc:74: warn: ignoring syscall mprotect(...)
build/X86/sim/syscall_emul.cc:74: warn: ignoring syscall set_robust_list(...)
build/X86/sim/syscall_emul.cc:74: warn: ignoring syscall mprotect(...)
build/X86/sim/syscall_emul.cc:74: warn: ignoring syscall set_robust_list(...)
CacheController: Cannot insert the Msg into lower interface.
	Command being timed: "./build/X86/gem5.debug /home/gem5/gem5_new/configs/mytest2/hello.py -f /home/gem5/gem5_new/ext/CMSpec/CMSpec/test/myTests/tc1_l1l2_llc_13.xml -c 13 -b Threads"
	User time (seconds): 3086.79
	System time (seconds): 0.25
	Percent of CPU this job got: 99%
	Elapsed (wall clock) time (h:mm:ss or m:ss): 51:27.29
	Average shared text size (kbytes): 0
	Average unshared data size (kbytes): 0
	Average stack size (kbytes): 0
	Average total size (kbytes): 0
	Maximum resident set size (kbytes): 424280
	Average resident set size (kbytes): 0
	Major (requiring I/O) page faults: 0
	Minor (reclaiming a frame) page faults: 91973
	Voluntary context switches: 3
	Involuntary context switches: 21379
	Swaps: 0
	File system inputs: 0
	File system outputs: 1880
	Socket messages sent: 0
	Socket messages received: 0
	Signals delivered: 0
	Page size (bytes): 4096
	Exit status: 0
14
/home/gem5/gem5_new/ext/CMSpec/CMSpec/test/myTests/tc1_l1l2_llc_14.xml
Global frequency set at 1000000000000 ticks per second
build/X86/mem/dram_interface.cc:690: warn: DRAM device capacity (8192 Mbytes) does not match the address range assigned (4096 Mbytes)
simpleCache
DEBUG COH Protocol Name in XML header: MSI
/home/gem5/gem5_new/ext/CMSpec/CMSpec/test/myTests/tc1_l1l2_llc_14.xml
FSM path: /home/gem5/gem5_new/ext/CMSpec/CMSpec/Protocols_FSM/
simpleCache
simpleCache
simpleCache
simpleCache
simpleCache
simpleCache
simpleCache
simpleCache
simpleCache
simpleCache
simpleCache
simpleCache
simpleCache
build/X86/mem/coherent_xbar.cc:140: warn: CoherentXBar board.cache_hierarchy.membus has no snooping ports attached!
0: board.remote_gdb: listening for remote gdb on port 7000
gem5 Simulator System.  https://www.gem5.org
gem5 is copyrighted software; use the --copyright option for details.

gem5 version 22.1.0.0
gem5 compiled Jun 16 2024 22:09:04
gem5 started Jun 17 2024 09:19:24
gem5 executing on gem5-VirtualBox, pid 353772
command line: ./build/X86/gem5.debug /home/gem5/gem5_new/configs/mytest2/hello.py -f /home/gem5/gem5_new/ext/CMSpec/CMSpec/test/myTests/tc1_l1l2_llc_14.xml -c 14 -b Threads

warn: The simulate package is still in a beta state. The gem5 project does not guarantee the APIs within this package will remain consistent across upcoming releases.
warn: No dot file generated. Please install pydot to generate the dot file and pdf.
build/X86/sim/simulate.cc:192: info: Entering event queue @ 0.  Starting simulation...
build/X86/arch/x86/cpuid.cc:180: warn: x86 cpuid family 0x0000: unimplemented function 13
build/X86/sim/mem_state.cc:443: info: Increasing stack size by one page.
build/X86/sim/syscall_emul.cc:74: warn: ignoring syscall mprotect(...)
build/X86/sim/syscall_emul.cc:74: warn: ignoring syscall mprotect(...)
build/X86/sim/syscall_emul.cc:74: warn: ignoring syscall mprotect(...)
build/X86/sim/syscall_emul.cc:74: warn: ignoring syscall mprotect(...)
build/X86/sim/syscall_emul.cc:74: warn: ignoring syscall mprotect(...)
build/X86/sim/syscall_emul.cc:74: warn: ignoring syscall mprotect(...)
build/X86/sim/syscall_emul.cc:74: warn: ignoring syscall mprotect(...)
build/X86/sim/syscall_emul.cc:74: warn: ignoring syscall mprotect(...)
build/X86/sim/syscall_emul.cc:74: warn: ignoring syscall set_robust_list(...)
build/X86/sim/syscall_emul.cc:85: warn: ignoring syscall rt_sigaction(...)
      (further warnings will be suppressed)
build/X86/sim/syscall_emul.cc:85: warn: ignoring syscall rt_sigprocmask(...)
      (further warnings will be suppressed)
build/X86/sim/mem_state.cc:443: info: Increasing stack size by one page.
build/X86/arch/x86/generated/exec-ns.cc.inc:27: warn: instruction 'palignr_Vdq_Wdq_Ib' unimplemented
build/X86/arch/x86/generated/exec-ns.cc.inc:27: warn: instruction 'palignr_Vdq_Wdq_Ib' unimplemented
build/X86/arch/x86/generated/exec-ns.cc.inc:27: warn: instruction 'palignr_Vdq_Wdq_Ib' unimplemented
build/X86/arch/x86/generated/exec-ns.cc.inc:27: warn: instruction 'palignr_Vdq_Wdq_Ib' unimplemented
Running on 14 cores. with 409600 values
build/X86/sim/syscall_emul.cc:74: warn: ignoring syscall mprotect(...)
build/X86/sim/power_state.cc:105: warn: PowerState: Already in the requested power state, request ignored
build/X86/sim/syscall_emul.cc:74: warn: ignoring syscall set_robust_list(...)
build/X86/sim/syscall_emul.cc:74: warn: ignoring syscall mprotect(...)
build/X86/sim/syscall_emul.cc:74: warn: ignoring syscall set_robust_list(...)
build/X86/sim/syscall_emul.cc:74: warn: ignoring syscall mprotect(...)
build/X86/sim/syscall_emul.cc:74: warn: ignoring syscall set_robust_list(...)
build/X86/sim/syscall_emul.cc:74: warn: ignoring syscall mprotect(...)
build/X86/sim/syscall_emul.cc:74: warn: ignoring syscall set_robust_list(...)
build/X86/sim/syscall_emul.cc:74: warn: ignoring syscall mprotect(...)
build/X86/sim/syscall_emul.cc:74: warn: ignoring syscall set_robust_list(...)
build/X86/sim/syscall_emul.cc:74: warn: ignoring syscall mprotect(...)
build/X86/sim/syscall_emul.cc:74: warn: ignoring syscall set_robust_list(...)
build/X86/sim/syscall_emul.cc:74: warn: ignoring syscall mprotect(...)
build/X86/sim/syscall_emul.cc:74: warn: ignoring syscall set_robust_list(...)
build/X86/sim/syscall_emul.cc:74: warn: ignoring syscall mprotect(...)
build/X86/sim/syscall_emul.cc:74: warn: ignoring syscall set_robust_list(...)
build/X86/sim/syscall_emul.cc:74: warn: ignoring syscall mprotect(...)
build/X86/sim/syscall_emul.cc:74: warn: ignoring syscall set_robust_list(...)
build/X86/sim/syscall_emul.cc:74: warn: ignoring syscall mprotect(...)
build/X86/sim/syscall_emul.cc:74: warn: ignoring syscall set_robust_list(...)
build/X86/sim/syscall_emul.cc:74: warn: ignoring syscall mprotect(...)
build/X86/sim/syscall_emul.cc:74: warn: ignoring syscall set_robust_list(...)
build/X86/sim/syscall_emul.cc:74: warn: ignoring syscall mprotect(...)
build/X86/sim/syscall_emul.cc:74: warn: ignoring syscall set_robust_list(...)
build/X86/sim/syscall_emul.cc:74: warn: ignoring syscall mprotect(...)
build/X86/sim/syscall_emul.cc:74: warn: ignoring syscall set_robust_list(...)
Waiting for other threads to complete
build/X86/sim/process.cc:333: warn: Process::allocateMem: addr 0x7ffff7c6f000 already mapped
build/X86/sim/syscall_emul.cc:74: warn: ignoring syscall mprotect(...)
build/X86/sim/syscall_emul.cc:74: warn: ignoring syscall mprotect(...)
build/X86/sim/syscall_emul.cc:74: warn: ignoring syscall mprotect(...)
build/X86/sim/syscall_emul.cc:74: warn: ignoring syscall mprotect(...)
build/X86/sim/syscall_emul.cc:74: warn: ignoring syscall mprotect(...)
build/X86/sim/syscall_emul.cc:74: warn: ignoring syscall mprotect(...)
build/X86/sim/syscall_emul.cc:74: warn: ignoring syscall mprotect(...)
build/X86/sim/syscall_emul.cc:74: warn: ignoring syscall mprotect(...)
build/X86/sim/syscall_emul.cc:74: warn: ignoring syscall mprotect(...)
build/X86/sim/process.cc:333: warn: Process::allocateMem: addr 0x7ffff7c70000 already mapped
build/X86/sim/syscall_emul.cc:74: warn: ignoring syscall mprotect(...)
build/X86/sim/syscall_emul.cc:74: warn: ignoring syscall mprotect(...)
build/X86/sim/syscall_emul.cc:74: warn: ignoring syscall mprotect(...)
build/X86/sim/syscall_emul.cc:74: warn: ignoring syscall mprotect(...)
build/X86/sim/process.cc:333: warn: Process::allocateMem: addr 0x7ffff7d1b000 already mapped
build/X86/sim/syscall_emul.cc:74: warn: ignoring syscall madvise(...)
build/X86/sim/syscall_emul.cc:74: warn: ignoring syscall madvise(...)
build/X86/sim/syscall_emul.cc:74: warn: ignoring syscall madvise(...)
build/X86/sim/syscall_emul.cc:74: warn: ignoring syscall madvise(...)
build/X86/sim/syscall_emul.cc:74: warn: ignoring syscall madvise(...)
build/X86/sim/syscall_emul.cc:74: warn: ignoring syscall madvise(...)
build/X86/sim/syscall_emul.cc:74: warn: ignoring syscall madvise(...)
build/X86/sim/syscall_emul.cc:74: warn: ignoring syscall madvise(...)
build/X86/sim/syscall_emul.cc:74: warn: ignoring syscall madvise(...)
build/X86/sim/syscall_emul.cc:74: warn: ignoring syscall madvise(...)
build/X86/sim/syscall_emul.cc:74: warn: ignoring syscall madvise(...)
build/X86/sim/syscall_emul.cc:74: warn: ignoring syscall madvise(...)
build/X86/sim/syscall_emul.cc:74: warn: ignoring syscall madvise(...)
Validating...Success!
	Command being timed: "./build/X86/gem5.debug /home/gem5/gem5_new/configs/mytest2/hello.py -f /home/gem5/gem5_new/ext/CMSpec/CMSpec/test/myTests/tc1_l1l2_llc_14.xml -c 14 -b Threads"
	User time (seconds): 4020.44
	System time (seconds): 3.01
	Percent of CPU this job got: 99%
	Elapsed (wall clock) time (h:mm:ss or m:ss): 1:07:08
	Average shared text size (kbytes): 0
	Average unshared data size (kbytes): 0
	Average stack size (kbytes): 0
	Average total size (kbytes): 0
	Maximum resident set size (kbytes): 535212
	Average resident set size (kbytes): 0
	Major (requiring I/O) page faults: 0
	Minor (reclaiming a frame) page faults: 119959
	Voluntary context switches: 12
	Involuntary context switches: 157192
	Swaps: 0
	File system inputs: 0
	File system outputs: 3952
	Socket messages sent: 0
	Socket messages received: 0
	Signals delivered: 0
	Page size (bytes): 4096
	Exit status: 0
15
/home/gem5/gem5_new/ext/CMSpec/CMSpec/test/myTests/tc1_l1l2_llc_15.xml
Global frequency set at 1000000000000 ticks per second
build/X86/mem/dram_interface.cc:690: warn: DRAM device capacity (8192 Mbytes) does not match the address range assigned (4096 Mbytes)
simpleCache
DEBUG COH Protocol Name in XML header: MSI
/home/gem5/gem5_new/ext/CMSpec/CMSpec/test/myTests/tc1_l1l2_llc_15.xml
FSM path: /home/gem5/gem5_new/ext/CMSpec/CMSpec/Protocols_FSM/
simpleCache
simpleCache
simpleCache
simpleCache
simpleCache
simpleCache
simpleCache
simpleCache
simpleCache
simpleCache
simpleCache
simpleCache
simpleCache
simpleCache
build/X86/mem/coherent_xbar.cc:140: warn: CoherentXBar board.cache_hierarchy.membus has no snooping ports attached!
0: board.remote_gdb: listening for remote gdb on port 7000
gem5 Simulator System.  https://www.gem5.org
gem5 is copyrighted software; use the --copyright option for details.

gem5 version 22.1.0.0
gem5 compiled Jun 16 2024 22:09:04
gem5 started Jun 17 2024 10:26:32
gem5 executing on gem5-VirtualBox, pid 353814
command line: ./build/X86/gem5.debug /home/gem5/gem5_new/configs/mytest2/hello.py -f /home/gem5/gem5_new/ext/CMSpec/CMSpec/test/myTests/tc1_l1l2_llc_15.xml -c 15 -b Threads

warn: The simulate package is still in a beta state. The gem5 project does not guarantee the APIs within this package will remain consistent across upcoming releases.
warn: No dot file generated. Please install pydot to generate the dot file and pdf.
build/X86/sim/simulate.cc:192: info: Entering event queue @ 0.  Starting simulation...
build/X86/arch/x86/cpuid.cc:180: warn: x86 cpuid family 0x0000: unimplemented function 13
build/X86/sim/mem_state.cc:443: info: Increasing stack size by one page.
build/X86/sim/syscall_emul.cc:74: warn: ignoring syscall mprotect(...)
build/X86/sim/syscall_emul.cc:74: warn: ignoring syscall mprotect(...)
build/X86/sim/syscall_emul.cc:74: warn: ignoring syscall mprotect(...)
build/X86/sim/syscall_emul.cc:74: warn: ignoring syscall mprotect(...)
build/X86/sim/syscall_emul.cc:74: warn: ignoring syscall mprotect(...)
build/X86/sim/syscall_emul.cc:74: warn: ignoring syscall mprotect(...)
build/X86/sim/syscall_emul.cc:74: warn: ignoring syscall mprotect(...)
build/X86/sim/syscall_emul.cc:74: warn: ignoring syscall mprotect(...)
build/X86/sim/syscall_emul.cc:74: warn: ignoring syscall set_robust_list(...)
build/X86/sim/syscall_emul.cc:85: warn: ignoring syscall rt_sigaction(...)
      (further warnings will be suppressed)
build/X86/sim/syscall_emul.cc:85: warn: ignoring syscall rt_sigprocmask(...)
      (further warnings will be suppressed)
build/X86/sim/mem_state.cc:443: info: Increasing stack size by one page.
build/X86/arch/x86/generated/exec-ns.cc.inc:27: warn: instruction 'palignr_Vdq_Wdq_Ib' unimplemented
build/X86/arch/x86/generated/exec-ns.cc.inc:27: warn: instruction 'palignr_Vdq_Wdq_Ib' unimplemented
build/X86/arch/x86/generated/exec-ns.cc.inc:27: warn: instruction 'palignr_Vdq_Wdq_Ib' unimplemented
build/X86/arch/x86/generated/exec-ns.cc.inc:27: warn: instruction 'palignr_Vdq_Wdq_Ib' unimplemented
Running on 15 cores. with 409600 values
build/X86/sim/syscall_emul.cc:74: warn: ignoring syscall mprotect(...)
build/X86/sim/power_state.cc:105: warn: PowerState: Already in the requested power state, request ignored
build/X86/sim/syscall_emul.cc:74: warn: ignoring syscall set_robust_list(...)
build/X86/sim/syscall_emul.cc:74: warn: ignoring syscall mprotect(...)
build/X86/sim/syscall_emul.cc:74: warn: ignoring syscall set_robust_list(...)
build/X86/sim/syscall_emul.cc:74: warn: ignoring syscall mprotect(...)
build/X86/sim/syscall_emul.cc:74: warn: ignoring syscall set_robust_list(...)
build/X86/sim/syscall_emul.cc:74: warn: ignoring syscall mprotect(...)
build/X86/sim/syscall_emul.cc:74: warn: ignoring syscall set_robust_list(...)
build/X86/sim/syscall_emul.cc:74: warn: ignoring syscall mprotect(...)
build/X86/sim/syscall_emul.cc:74: warn: ignoring syscall set_robust_list(...)
build/X86/sim/syscall_emul.cc:74: warn: ignoring syscall mprotect(...)
build/X86/sim/syscall_emul.cc:74: warn: ignoring syscall set_robust_list(...)
build/X86/sim/syscall_emul.cc:74: warn: ignoring syscall mprotect(...)
build/X86/sim/syscall_emul.cc:74: warn: ignoring syscall set_robust_list(...)
build/X86/sim/syscall_emul.cc:74: warn: ignoring syscall mprotect(...)
build/X86/sim/syscall_emul.cc:74: warn: ignoring syscall set_robust_list(...)
build/X86/sim/syscall_emul.cc:74: warn: ignoring syscall mprotect(...)
build/X86/sim/syscall_emul.cc:74: warn: ignoring syscall set_robust_list(...)
build/X86/sim/syscall_emul.cc:74: warn: ignoring syscall mprotect(...)
build/X86/sim/syscall_emul.cc:74: warn: ignoring syscall set_robust_list(...)
build/X86/sim/syscall_emul.cc:74: warn: ignoring syscall mprotect(...)
build/X86/sim/syscall_emul.cc:74: warn: ignoring syscall set_robust_list(...)
build/X86/sim/syscall_emul.cc:74: warn: ignoring syscall mprotect(...)
build/X86/sim/syscall_emul.cc:74: warn: ignoring syscall set_robust_list(...)
build/X86/sim/syscall_emul.cc:74: warn: ignoring syscall mprotect(...)
build/X86/sim/syscall_emul.cc:74: warn: ignoring syscall set_robust_list(...)
build/X86/sim/syscall_emul.cc:74: warn: ignoring syscall mprotect(...)
build/X86/sim/syscall_emul.cc:74: warn: ignoring syscall set_robust_list(...)
CacheController: Cannot insert the Msg into lower interface.
	Command being timed: "./build/X86/gem5.debug /home/gem5/gem5_new/configs/mytest2/hello.py -f /home/gem5/gem5_new/ext/CMSpec/CMSpec/test/myTests/tc1_l1l2_llc_15.xml -c 15 -b Threads"
	User time (seconds): 3377.02
	System time (seconds): 0.37
	Percent of CPU this job got: 99%
	Elapsed (wall clock) time (h:mm:ss or m:ss): 56:17.72
	Average shared text size (kbytes): 0
	Average unshared data size (kbytes): 0
	Average stack size (kbytes): 0
	Average total size (kbytes): 0
	Maximum resident set size (kbytes): 460556
	Average resident set size (kbytes): 0
	Major (requiring I/O) page faults: 0
	Minor (reclaiming a frame) page faults: 101164
	Voluntary context switches: 4
	Involuntary context switches: 23356
	Swaps: 0
	File system inputs: 0
	File system outputs: 2144
	Socket messages sent: 0
	Socket messages received: 0
	Signals delivered: 0
	Page size (bytes): 4096
	Exit status: 0
16
/home/gem5/gem5_new/ext/CMSpec/CMSpec/test/myTests/tc1_l1l2_llc_16.xml
Global frequency set at 1000000000000 ticks per second
build/X86/mem/dram_interface.cc:690: warn: DRAM device capacity (8192 Mbytes) does not match the address range assigned (4096 Mbytes)
simpleCache
DEBUG COH Protocol Name in XML header: MSI
/home/gem5/gem5_new/ext/CMSpec/CMSpec/test/myTests/tc1_l1l2_llc_16.xml
FSM path: /home/gem5/gem5_new/ext/CMSpec/CMSpec/Protocols_FSM/
simpleCache
simpleCache
simpleCache
simpleCache
simpleCache
simpleCache
simpleCache
simpleCache
simpleCache
simpleCache
simpleCache
simpleCache
simpleCache
simpleCache
simpleCache
build/X86/mem/coherent_xbar.cc:140: warn: CoherentXBar board.cache_hierarchy.membus has no snooping ports attached!
0: board.remote_gdb: listening for remote gdb on port 7000
gem5 Simulator System.  https://www.gem5.org
gem5 is copyrighted software; use the --copyright option for details.

gem5 version 22.1.0.0
gem5 compiled Jun 16 2024 22:09:04
gem5 started Jun 17 2024 11:22:50
gem5 executing on gem5-VirtualBox, pid 353889
command line: ./build/X86/gem5.debug /home/gem5/gem5_new/configs/mytest2/hello.py -f /home/gem5/gem5_new/ext/CMSpec/CMSpec/test/myTests/tc1_l1l2_llc_16.xml -c 16 -b Threads

warn: The simulate package is still in a beta state. The gem5 project does not guarantee the APIs within this package will remain consistent across upcoming releases.
warn: No dot file generated. Please install pydot to generate the dot file and pdf.
build/X86/sim/simulate.cc:192: info: Entering event queue @ 0.  Starting simulation...
build/X86/arch/x86/cpuid.cc:180: warn: x86 cpuid family 0x0000: unimplemented function 13
build/X86/sim/mem_state.cc:443: info: Increasing stack size by one page.
build/X86/sim/syscall_emul.cc:74: warn: ignoring syscall mprotect(...)
build/X86/sim/syscall_emul.cc:74: warn: ignoring syscall mprotect(...)
build/X86/sim/syscall_emul.cc:74: warn: ignoring syscall mprotect(...)
build/X86/sim/syscall_emul.cc:74: warn: ignoring syscall mprotect(...)
build/X86/sim/syscall_emul.cc:74: warn: ignoring syscall mprotect(...)
build/X86/sim/syscall_emul.cc:74: warn: ignoring syscall mprotect(...)
build/X86/sim/syscall_emul.cc:74: warn: ignoring syscall mprotect(...)
build/X86/sim/syscall_emul.cc:74: warn: ignoring syscall mprotect(...)
build/X86/sim/syscall_emul.cc:74: warn: ignoring syscall set_robust_list(...)
build/X86/sim/syscall_emul.cc:85: warn: ignoring syscall rt_sigaction(...)
      (further warnings will be suppressed)
build/X86/sim/syscall_emul.cc:85: warn: ignoring syscall rt_sigprocmask(...)
      (further warnings will be suppressed)
build/X86/sim/mem_state.cc:443: info: Increasing stack size by one page.
build/X86/arch/x86/generated/exec-ns.cc.inc:27: warn: instruction 'palignr_Vdq_Wdq_Ib' unimplemented
build/X86/arch/x86/generated/exec-ns.cc.inc:27: warn: instruction 'palignr_Vdq_Wdq_Ib' unimplemented
build/X86/arch/x86/generated/exec-ns.cc.inc:27: warn: instruction 'palignr_Vdq_Wdq_Ib' unimplemented
build/X86/arch/x86/generated/exec-ns.cc.inc:27: warn: instruction 'palignr_Vdq_Wdq_Ib' unimplemented
Running on 16 cores. with 409600 values
build/X86/sim/syscall_emul.cc:74: warn: ignoring syscall mprotect(...)
build/X86/sim/power_state.cc:105: warn: PowerState: Already in the requested power state, request ignored
build/X86/sim/syscall_emul.cc:74: warn: ignoring syscall set_robust_list(...)
build/X86/sim/syscall_emul.cc:74: warn: ignoring syscall mprotect(...)
build/X86/sim/syscall_emul.cc:74: warn: ignoring syscall set_robust_list(...)
build/X86/sim/syscall_emul.cc:74: warn: ignoring syscall mprotect(...)
build/X86/sim/syscall_emul.cc:74: warn: ignoring syscall set_robust_list(...)
build/X86/sim/syscall_emul.cc:74: warn: ignoring syscall mprotect(...)
build/X86/sim/syscall_emul.cc:74: warn: ignoring syscall set_robust_list(...)
build/X86/sim/syscall_emul.cc:74: warn: ignoring syscall mprotect(...)
build/X86/sim/syscall_emul.cc:74: warn: ignoring syscall set_robust_list(...)
build/X86/sim/syscall_emul.cc:74: warn: ignoring syscall mprotect(...)
build/X86/sim/syscall_emul.cc:74: warn: ignoring syscall set_robust_list(...)
build/X86/sim/syscall_emul.cc:74: warn: ignoring syscall mprotect(...)
build/X86/sim/syscall_emul.cc:74: warn: ignoring syscall set_robust_list(...)
build/X86/sim/syscall_emul.cc:74: warn: ignoring syscall mprotect(...)
build/X86/sim/syscall_emul.cc:74: warn: ignoring syscall set_robust_list(...)
build/X86/sim/syscall_emul.cc:74: warn: ignoring syscall mprotect(...)
build/X86/sim/syscall_emul.cc:74: warn: ignoring syscall set_robust_list(...)
build/X86/sim/syscall_emul.cc:74: warn: ignoring syscall mprotect(...)
build/X86/sim/syscall_emul.cc:74: warn: ignoring syscall set_robust_list(...)
build/X86/sim/syscall_emul.cc:74: warn: ignoring syscall mprotect(...)
build/X86/sim/syscall_emul.cc:74: warn: ignoring syscall set_robust_list(...)
build/X86/sim/syscall_emul.cc:74: warn: ignoring syscall mprotect(...)
build/X86/sim/syscall_emul.cc:74: warn: ignoring syscall set_robust_list(...)
build/X86/sim/syscall_emul.cc:74: warn: ignoring syscall mprotect(...)
build/X86/sim/syscall_emul.cc:74: warn: ignoring syscall set_robust_list(...)
build/X86/sim/syscall_emul.cc:74: warn: ignoring syscall mprotect(...)
build/X86/sim/syscall_emul.cc:74: warn: ignoring syscall set_robust_list(...)
build/X86/sim/syscall_emul.cc:74: warn: ignoring syscall mprotect(...)
build/X86/sim/syscall_emul.cc:74: warn: ignoring syscall set_robust_list(...)
CacheController: Cannot insert the Msg into lower interface.
	Command being timed: "./build/X86/gem5.debug /home/gem5/gem5_new/configs/mytest2/hello.py -f /home/gem5/gem5_new/ext/CMSpec/CMSpec/test/myTests/tc1_l1l2_llc_16.xml -c 16 -b Threads"
	User time (seconds): 3599.35
	System time (seconds): 0.38
	Percent of CPU this job got: 99%
	Elapsed (wall clock) time (h:mm:ss or m:ss): 1:00:00
	Average shared text size (kbytes): 0
	Average unshared data size (kbytes): 0
	Average stack size (kbytes): 0
	Average total size (kbytes): 0
	Maximum resident set size (kbytes): 471004
	Average resident set size (kbytes): 0
	Major (requiring I/O) page faults: 0
	Minor (reclaiming a frame) page faults: 103649
	Voluntary context switches: 3
	Involuntary context switches: 30266
	Swaps: 0
	File system inputs: 0
	File system outputs: 2296
	Socket messages sent: 0
	Socket messages received: 0
	Signals delivered: 0
	Page size (bytes): 4096
	Exit status: 0
