2
/home/gem5/gem5_new/ext/CMSpec/CMSpec/test/myTests/tc1_l1l2_llc_2.xml
Global frequency set at 1000000000000 ticks per second
build/X86/mem/dram_interface.cc:690: warn: DRAM device capacity (8192 Mbytes) does not match the address range assigned (4096 Mbytes)
simpleCache
DEBUG COH Protocol Name in XML header: MSI
/home/gem5/gem5_new/ext/CMSpec/CMSpec/test/myTests/tc1_l1l2_llc_2.xml
FSM path: /home/gem5/gem5_new/ext/CMSpec/CMSpec/Protocols_FSM/
simpleCache
build/X86/mem/coherent_xbar.cc:140: warn: CoherentXBar board.cache_hierarchy.membus has no snooping ports attached!
0: board.remote_gdb: listening for remote gdb on port 7000
gem5 Simulator System.  https://www.gem5.org
gem5 is copyrighted software; use the --copyright option for details.

gem5 version 22.1.0.0
gem5 compiled Jun 16 2024 22:09:04
gem5 started Jul  3 2024 05:37:57
gem5 executing on gem5-VirtualBox, pid 56423
command line: ./build/X86/gem5.debug /home/gem5/gem5_new/configs/mytest2/hello.py -f /home/gem5/gem5_new/ext/CMSpec/CMSpec/test/myTests/tc1_l1l2_llc_2.xml -c 2 -b RADIX -m Octopus

warn: The simulate package is still in a beta state. The gem5 project does not guarantee the APIs within this package will remain consistent across upcoming releases.
warn: No dot file generated. Please install pydot to generate the dot file and pdf.
build/X86/sim/simulate.cc:192: info: Entering event queue @ 0.  Starting simulation...
build/X86/arch/x86/cpuid.cc:180: warn: x86 cpuid family 0x0000: unimplemented function 13
build/X86/sim/syscall_emul.cc:74: warn: ignoring syscall set_robust_list(...)
build/X86/sim/syscall_emul.cc:85: warn: ignoring syscall rt_sigaction(...)
      (further warnings will be suppressed)
build/X86/sim/syscall_emul.cc:85: warn: ignoring syscall rt_sigprocmask(...)
      (further warnings will be suppressed)
build/X86/sim/mem_state.cc:443: info: Increasing stack size by one page.
build/X86/sim/syscall_emul.hh:1016: warn: readlink() called on '/proc/self/exe' may yield unexpected results in various settings.
      Returning '/home/gem5/splash/splash2/codes/kernels/radix/RADIX'
build/X86/sim/syscall_emul.cc:74: warn: ignoring syscall mprotect(...)

Integer Radix Sort
     262144 Keys
     2 Processors
     Radix = 1024
     Max key = 524288

build/X86/sim/syscall_emul.cc:74: warn: ignoring syscall mprotect(...)
build/X86/sim/power_state.cc:105: warn: PowerState: Already in the requested power state, request ignored
build/X86/sim/syscall_emul.cc:74: warn: ignoring syscall set_robust_list(...)
build/X86/sim/syscall_emul.cc:74: warn: ignoring syscall mprotect(...)
build/X86/sim/syscall_emul.cc:74: warn: ignoring syscall madvise(...)

                 PROCESS STATISTICS
               Total            Rank            Sort
 Proc          Time             Time            Time
    0           5550            1867            3669

                 TIMING INFORMATION
Start time                        : 1000000000000028
Initialization finish time        : 1000000000016319
Overall finish time               : 1000000000021869
Total time with initialization    :            21841
Total time without initialization :             5550

	Command being timed: "./build/X86/gem5.debug /home/gem5/gem5_new/configs/mytest2/hello.py -f /home/gem5/gem5_new/ext/CMSpec/CMSpec/test/myTests/tc1_l1l2_llc_2.xml -c 2 -b RADIX -m Octopus"
	User time (seconds): 2328.73
	System time (seconds): 0.12
	Percent of CPU this job got: 99%
	Elapsed (wall clock) time (h:mm:ss or m:ss): 38:49.29
	Average shared text size (kbytes): 0
	Average unshared data size (kbytes): 0
	Average stack size (kbytes): 0
	Average total size (kbytes): 0
	Maximum resident set size (kbytes): 204380
	Average resident set size (kbytes): 0
	Major (requiring I/O) page faults: 0
	Minor (reclaiming a frame) page faults: 38895
	Voluntary context switches: 44
	Involuntary context switches: 22570
	Swaps: 0
	File system inputs: 0
	File system outputs: 792
	Socket messages sent: 0
	Socket messages received: 0
	Signals delivered: 0
	Page size (bytes): 4096
	Exit status: 0
simTicks                                  21903918000                       # Number of ticks simulated (Tick)
finalTick                                 21903918000                       # Number of ticks from beginning of simulation (restored from checkpoints and never reset) (Tick)
board.clk_domain.clock                           1000                       # Clock period in ticks (Tick)
4
/home/gem5/gem5_new/ext/CMSpec/CMSpec/test/myTests/tc1_l1l2_llc_4.xml
Global frequency set at 1000000000000 ticks per second
build/X86/mem/dram_interface.cc:690: warn: DRAM device capacity (8192 Mbytes) does not match the address range assigned (4096 Mbytes)
simpleCache
DEBUG COH Protocol Name in XML header: MSI
/home/gem5/gem5_new/ext/CMSpec/CMSpec/test/myTests/tc1_l1l2_llc_4.xml
FSM path: /home/gem5/gem5_new/ext/CMSpec/CMSpec/Protocols_FSM/
simpleCache
simpleCache
simpleCache
build/X86/mem/coherent_xbar.cc:140: warn: CoherentXBar board.cache_hierarchy.membus has no snooping ports attached!
0: board.remote_gdb: listening for remote gdb on port 7000
gem5 Simulator System.  https://www.gem5.org
gem5 is copyrighted software; use the --copyright option for details.

gem5 version 22.1.0.0
gem5 compiled Jun 16 2024 22:09:04
gem5 started Jul  3 2024 06:16:46
gem5 executing on gem5-VirtualBox, pid 56475
command line: ./build/X86/gem5.debug /home/gem5/gem5_new/configs/mytest2/hello.py -f /home/gem5/gem5_new/ext/CMSpec/CMSpec/test/myTests/tc1_l1l2_llc_4.xml -c 4 -b RADIX -m Octopus

warn: The simulate package is still in a beta state. The gem5 project does not guarantee the APIs within this package will remain consistent across upcoming releases.
warn: No dot file generated. Please install pydot to generate the dot file and pdf.
build/X86/sim/simulate.cc:192: info: Entering event queue @ 0.  Starting simulation...
build/X86/arch/x86/cpuid.cc:180: warn: x86 cpuid family 0x0000: unimplemented function 13
build/X86/sim/syscall_emul.cc:74: warn: ignoring syscall set_robust_list(...)
build/X86/sim/syscall_emul.cc:85: warn: ignoring syscall rt_sigaction(...)
      (further warnings will be suppressed)
build/X86/sim/syscall_emul.cc:85: warn: ignoring syscall rt_sigprocmask(...)
      (further warnings will be suppressed)
build/X86/sim/mem_state.cc:443: info: Increasing stack size by one page.
build/X86/sim/syscall_emul.hh:1016: warn: readlink() called on '/proc/self/exe' may yield unexpected results in various settings.
      Returning '/home/gem5/splash/splash2/codes/kernels/radix/RADIX'
build/X86/sim/syscall_emul.cc:74: warn: ignoring syscall mprotect(...)

Integer Radix Sort
     262144 Keys
     4 Processors
     Radix = 1024
     Max key = 524288

build/X86/sim/syscall_emul.cc:74: warn: ignoring syscall mprotect(...)
build/X86/sim/power_state.cc:105: warn: PowerState: Already in the requested power state, request ignored
build/X86/sim/syscall_emul.cc:74: warn: ignoring syscall set_robust_list(...)
build/X86/sim/syscall_emul.cc:74: warn: ignoring syscall mprotect(...)
build/X86/sim/syscall_emul.cc:74: warn: ignoring syscall mprotect(...)
build/X86/sim/syscall_emul.cc:74: warn: ignoring syscall set_robust_list(...)
build/X86/sim/syscall_emul.cc:74: warn: ignoring syscall mprotect(...)
build/X86/sim/syscall_emul.cc:74: warn: ignoring syscall mprotect(...)
build/X86/sim/syscall_emul.cc:74: warn: ignoring syscall set_robust_list(...)
build/X86/sim/syscall_emul.cc:74: warn: ignoring syscall mprotect(...)
build/X86/sim/process.cc:333: warn: Process::allocateMem: addr 0x7ffff744e000 already mapped
build/X86/sim/process.cc:333: warn: Process::allocateMem: addr 0x7ffff74c4000 already mapped
build/X86/sim/process.cc:333: warn: Process::allocateMem: addr 0x7ffff7474000 already mapped
build/X86/sim/syscall_emul.cc:74: warn: ignoring syscall madvise(...)
build/X86/sim/syscall_emul.cc:74: warn: ignoring syscall madvise(...)
build/X86/sim/syscall_emul.cc:74: warn: ignoring syscall madvise(...)

                 PROCESS STATISTICS
               Total            Rank            Sort
 Proc          Time             Time            Time
    0           3009            1067            1920

                 TIMING INFORMATION
Start time                        : 1000000000000028
Initialization finish time        : 1000000000008195
Overall finish time               : 1000000000011204
Total time with initialization    :            11176
Total time without initialization :             3009

	Command being timed: "./build/X86/gem5.debug /home/gem5/gem5_new/configs/mytest2/hello.py -f /home/gem5/gem5_new/ext/CMSpec/CMSpec/test/myTests/tc1_l1l2_llc_4.xml -c 4 -b RADIX -m Octopus"
	User time (seconds): 2245.20
	System time (seconds): 0.16
	Percent of CPU this job got: 99%
	Elapsed (wall clock) time (h:mm:ss or m:ss): 37:25.82
	Average shared text size (kbytes): 0
	Average unshared data size (kbytes): 0
	Average stack size (kbytes): 0
	Average total size (kbytes): 0
	Maximum resident set size (kbytes): 234068
	Average resident set size (kbytes): 0
	Major (requiring I/O) page faults: 0
	Minor (reclaiming a frame) page faults: 45908
	Voluntary context switches: 46
	Involuntary context switches: 19707
	Swaps: 0
	File system inputs: 0
	File system outputs: 1328
	Socket messages sent: 0
	Socket messages received: 0
	Signals delivered: 0
	Page size (bytes): 4096
	Exit status: 0
simTicks                                  11239965000                       # Number of ticks simulated (Tick)
finalTick                                 11239965000                       # Number of ticks from beginning of simulation (restored from checkpoints and never reset) (Tick)
board.clk_domain.clock                           1000                       # Clock period in ticks (Tick)
8
/home/gem5/gem5_new/ext/CMSpec/CMSpec/test/myTests/tc1_l1l2_llc_8.xml
Global frequency set at 1000000000000 ticks per second
build/X86/mem/dram_interface.cc:690: warn: DRAM device capacity (8192 Mbytes) does not match the address range assigned (4096 Mbytes)
simpleCache
DEBUG COH Protocol Name in XML header: MSI
/home/gem5/gem5_new/ext/CMSpec/CMSpec/test/myTests/tc1_l1l2_llc_8.xml
FSM path: /home/gem5/gem5_new/ext/CMSpec/CMSpec/Protocols_FSM/
simpleCache
simpleCache
simpleCache
simpleCache
simpleCache
simpleCache
simpleCache
build/X86/mem/coherent_xbar.cc:140: warn: CoherentXBar board.cache_hierarchy.membus has no snooping ports attached!
0: board.remote_gdb: listening for remote gdb on port 7000
gem5 Simulator System.  https://www.gem5.org
gem5 is copyrighted software; use the --copyright option for details.

gem5 version 22.1.0.0
gem5 compiled Jun 16 2024 22:09:04
gem5 started Jul  3 2024 06:54:12
gem5 executing on gem5-VirtualBox, pid 57119
command line: ./build/X86/gem5.debug /home/gem5/gem5_new/configs/mytest2/hello.py -f /home/gem5/gem5_new/ext/CMSpec/CMSpec/test/myTests/tc1_l1l2_llc_8.xml -c 8 -b RADIX -m Octopus

warn: The simulate package is still in a beta state. The gem5 project does not guarantee the APIs within this package will remain consistent across upcoming releases.
warn: No dot file generated. Please install pydot to generate the dot file and pdf.
build/X86/sim/simulate.cc:192: info: Entering event queue @ 0.  Starting simulation...
build/X86/arch/x86/cpuid.cc:180: warn: x86 cpuid family 0x0000: unimplemented function 13
build/X86/sim/syscall_emul.cc:74: warn: ignoring syscall set_robust_list(...)
build/X86/sim/syscall_emul.cc:85: warn: ignoring syscall rt_sigaction(...)
      (further warnings will be suppressed)
build/X86/sim/syscall_emul.cc:85: warn: ignoring syscall rt_sigprocmask(...)
      (further warnings will be suppressed)
build/X86/sim/mem_state.cc:443: info: Increasing stack size by one page.
build/X86/sim/syscall_emul.hh:1016: warn: readlink() called on '/proc/self/exe' may yield unexpected results in various settings.
      Returning '/home/gem5/splash/splash2/codes/kernels/radix/RADIX'
build/X86/sim/syscall_emul.cc:74: warn: ignoring syscall mprotect(...)

Integer Radix Sort
     262144 Keys
     8 Processors
     Radix = 1024
     Max key = 524288

build/X86/sim/syscall_emul.cc:74: warn: ignoring syscall mprotect(...)
build/X86/sim/power_state.cc:105: warn: PowerState: Already in the requested power state, request ignored
build/X86/sim/syscall_emul.cc:74: warn: ignoring syscall set_robust_list(...)
build/X86/sim/syscall_emul.cc:74: warn: ignoring syscall mprotect(...)
build/X86/sim/syscall_emul.cc:74: warn: ignoring syscall mprotect(...)
build/X86/sim/syscall_emul.cc:74: warn: ignoring syscall set_robust_list(...)
build/X86/sim/syscall_emul.cc:74: warn: ignoring syscall mprotect(...)
build/X86/sim/syscall_emul.cc:74: warn: ignoring syscall mprotect(...)
build/X86/sim/syscall_emul.cc:74: warn: ignoring syscall set_robust_list(...)
build/X86/sim/syscall_emul.cc:74: warn: ignoring syscall mprotect(...)
build/X86/sim/syscall_emul.cc:74: warn: ignoring syscall mprotect(...)
build/X86/sim/syscall_emul.cc:74: warn: ignoring syscall set_robust_list(...)
build/X86/sim/syscall_emul.cc:74: warn: ignoring syscall mprotect(...)
build/X86/sim/syscall_emul.cc:74: warn: ignoring syscall mprotect(...)
build/X86/sim/syscall_emul.cc:74: warn: ignoring syscall set_robust_list(...)
build/X86/sim/syscall_emul.cc:74: warn: ignoring syscall mprotect(...)
build/X86/sim/syscall_emul.cc:74: warn: ignoring syscall mprotect(...)
build/X86/sim/syscall_emul.cc:74: warn: ignoring syscall set_robust_list(...)
build/X86/sim/syscall_emul.cc:74: warn: ignoring syscall mprotect(...)
build/X86/sim/syscall_emul.cc:74: warn: ignoring syscall mprotect(...)
build/X86/sim/syscall_emul.cc:74: warn: ignoring syscall set_robust_list(...)
build/X86/sim/syscall_emul.cc:74: warn: ignoring syscall mprotect(...)
build/X86/sim/process.cc:333: warn: Process::allocateMem: addr 0x7ffff740c000 already mapped
build/X86/sim/process.cc:333: warn: Process::allocateMem: addr 0x7ffff73ae000 already mapped
build/X86/sim/process.cc:333: warn: Process::allocateMem: addr 0x7ffff74d0000 already mapped
build/X86/sim/process.cc:333: warn: Process::allocateMem: addr 0x7ffff74c4000 already mapped
build/X86/sim/process.cc:333: warn: Process::allocateMem: addr 0x7ffff754b000 already mapped
build/X86/sim/process.cc:333: warn: Process::allocateMem: addr 0x7ffff7513000 already mapped
build/X86/sim/process.cc:333: warn: Process::allocateMem: addr 0x7ffff73a5000 already mapped
build/X86/sim/process.cc:333: warn: Process::allocateMem: addr 0x7ffff750c000 already mapped
build/X86/sim/process.cc:333: warn: Process::allocateMem: addr 0x7ffff7535000 already mapped
build/X86/sim/process.cc:333: warn: Process::allocateMem: addr 0x7ffff7544000 already mapped
build/X86/sim/process.cc:333: warn: Process::allocateMem: addr 0x7ffff73fc000 already mapped
build/X86/sim/process.cc:333: warn: Process::allocateMem: addr 0x7ffff73a2000 already mapped
build/X86/sim/process.cc:333: warn: Process::allocateMem: addr 0x7ffff73ed000 already mapped
build/X86/sim/process.cc:333: warn: Process::allocateMem: addr 0x7ffff740f000 already mapped
build/X86/sim/process.cc:333: warn: Process::allocateMem: addr 0x7ffff73ac000 already mapped
build/X86/sim/process.cc:333: warn: Process::allocateMem: addr 0x7ffff7507000 already mapped
build/X86/sim/process.cc:333: warn: Process::allocateMem: addr 0x7ffff7486000 already mapped
build/X86/sim/process.cc:333: warn: Process::allocateMem: addr 0x7ffff7525000 already mapped
build/X86/sim/process.cc:333: warn: Process::allocateMem: addr 0x7ffff73d9000 already mapped
build/X86/sim/process.cc:333: warn: Process::allocateMem: addr 0x7ffff744c000 already mapped
build/X86/sim/process.cc:333: warn: Process::allocateMem: addr 0x7ffff7425000 already mapped
build/X86/sim/process.cc:333: warn: Process::allocateMem: addr 0x7ffff73f9000 already mapped
build/X86/sim/process.cc:333: warn: Process::allocateMem: addr 0x7ffff73d6000 already mapped
build/X86/sim/process.cc:333: warn: Process::allocateMem: addr 0x7ffff7463000 already mapped
build/X86/sim/process.cc:333: warn: Process::allocateMem: addr 0x7ffff755d000 already mapped
build/X86/sim/syscall_emul.cc:74: warn: ignoring syscall madvise(...)
build/X86/sim/syscall_emul.cc:74: warn: ignoring syscall madvise(...)
build/X86/sim/syscall_emul.cc:74: warn: ignoring syscall madvise(...)
build/X86/sim/syscall_emul.cc:74: warn: ignoring syscall madvise(...)
build/X86/sim/syscall_emul.cc:74: warn: ignoring syscall madvise(...)
build/X86/sim/syscall_emul.cc:74: warn: ignoring syscall madvise(...)
build/X86/sim/syscall_emul.cc:74: warn: ignoring syscall madvise(...)

                 PROCESS STATISTICS
               Total            Rank            Sort
 Proc          Time             Time            Time
    0           2222             794            1401

                 TIMING INFORMATION
Start time                        : 1000000000000028
Initialization finish time        : 1000000000004145
Overall finish time               : 1000000000006367
Total time with initialization    :             6339
Total time without initialization :             2222

	Command being timed: "./build/X86/gem5.debug /home/gem5/gem5_new/configs/mytest2/hello.py -f /home/gem5/gem5_new/ext/CMSpec/CMSpec/test/myTests/tc1_l1l2_llc_8.xml -c 8 -b RADIX -m Octopus"
	User time (seconds): 2329.79
	System time (seconds): 0.17
	Percent of CPU this job got: 99%
	Elapsed (wall clock) time (h:mm:ss or m:ss): 38:50.23
	Average shared text size (kbytes): 0
	Average unshared data size (kbytes): 0
	Average stack size (kbytes): 0
	Average total size (kbytes): 0
	Maximum resident set size (kbytes): 295528
	Average resident set size (kbytes): 0
	Major (requiring I/O) page faults: 0
	Minor (reclaiming a frame) page faults: 60173
	Voluntary context switches: 45
	Involuntary context switches: 14986
	Swaps: 0
	File system inputs: 0
	File system outputs: 2432
	Socket messages sent: 0
	Socket messages received: 0
	Signals delivered: 0
	Page size (bytes): 4096
	Exit status: 0
simTicks                                   6406125000                       # Number of ticks simulated (Tick)
finalTick                                  6406125000                       # Number of ticks from beginning of simulation (restored from checkpoints and never reset) (Tick)
board.clk_domain.clock                           1000                       # Clock period in ticks (Tick)
16
/home/gem5/gem5_new/ext/CMSpec/CMSpec/test/myTests/tc1_l1l2_llc_16.xml
Global frequency set at 1000000000000 ticks per second
build/X86/mem/dram_interface.cc:690: warn: DRAM device capacity (8192 Mbytes) does not match the address range assigned (4096 Mbytes)
simpleCache
DEBUG COH Protocol Name in XML header: MSI
/home/gem5/gem5_new/ext/CMSpec/CMSpec/test/myTests/tc1_l1l2_llc_16.xml
FSM path: /home/gem5/gem5_new/ext/CMSpec/CMSpec/Protocols_FSM/
simpleCache
simpleCache
simpleCache
simpleCache
simpleCache
simpleCache
simpleCache
simpleCache
simpleCache
simpleCache
simpleCache
simpleCache
simpleCache
simpleCache
simpleCache
build/X86/mem/coherent_xbar.cc:140: warn: CoherentXBar board.cache_hierarchy.membus has no snooping ports attached!
0: board.remote_gdb: listening for remote gdb on port 7000
gem5 Simulator System.  https://www.gem5.org
gem5 is copyrighted software; use the --copyright option for details.

gem5 version 22.1.0.0
gem5 compiled Jun 16 2024 22:09:04
gem5 started Jul  3 2024 07:33:02
gem5 executing on gem5-VirtualBox, pid 57140
command line: ./build/X86/gem5.debug /home/gem5/gem5_new/configs/mytest2/hello.py -f /home/gem5/gem5_new/ext/CMSpec/CMSpec/test/myTests/tc1_l1l2_llc_16.xml -c 16 -b RADIX -m Octopus

warn: The simulate package is still in a beta state. The gem5 project does not guarantee the APIs within this package will remain consistent across upcoming releases.
warn: No dot file generated. Please install pydot to generate the dot file and pdf.
build/X86/sim/simulate.cc:192: info: Entering event queue @ 0.  Starting simulation...
build/X86/arch/x86/cpuid.cc:180: warn: x86 cpuid family 0x0000: unimplemented function 13
build/X86/sim/syscall_emul.cc:74: warn: ignoring syscall set_robust_list(...)
build/X86/sim/syscall_emul.cc:85: warn: ignoring syscall rt_sigaction(...)
      (further warnings will be suppressed)
build/X86/sim/syscall_emul.cc:85: warn: ignoring syscall rt_sigprocmask(...)
      (further warnings will be suppressed)
build/X86/sim/mem_state.cc:443: info: Increasing stack size by one page.
build/X86/sim/syscall_emul.hh:1016: warn: readlink() called on '/proc/self/exe' may yield unexpected results in various settings.
      Returning '/home/gem5/splash/splash2/codes/kernels/radix/RADIX'
build/X86/sim/syscall_emul.cc:74: warn: ignoring syscall mprotect(...)

Integer Radix Sort
     262144 Keys
     16 Processors
     Radix = 1024
     Max key = 524288

build/X86/sim/syscall_emul.cc:74: warn: ignoring syscall mprotect(...)
build/X86/sim/power_state.cc:105: warn: PowerState: Already in the requested power state, request ignored
build/X86/sim/syscall_emul.cc:74: warn: ignoring syscall set_robust_list(...)
build/X86/sim/syscall_emul.cc:74: warn: ignoring syscall mprotect(...)
build/X86/sim/syscall_emul.cc:74: warn: ignoring syscall mprotect(...)
build/X86/sim/syscall_emul.cc:74: warn: ignoring syscall set_robust_list(...)
build/X86/sim/syscall_emul.cc:74: warn: ignoring syscall mprotect(...)
build/X86/sim/syscall_emul.cc:74: warn: ignoring syscall mprotect(...)
build/X86/sim/syscall_emul.cc:74: warn: ignoring syscall set_robust_list(...)
build/X86/sim/syscall_emul.cc:74: warn: ignoring syscall mprotect(...)
build/X86/sim/syscall_emul.cc:74: warn: ignoring syscall mprotect(...)
build/X86/sim/syscall_emul.cc:74: warn: ignoring syscall set_robust_list(...)
build/X86/sim/syscall_emul.cc:74: warn: ignoring syscall mprotect(...)
build/X86/sim/syscall_emul.cc:74: warn: ignoring syscall mprotect(...)
build/X86/sim/syscall_emul.cc:74: warn: ignoring syscall set_robust_list(...)
build/X86/sim/syscall_emul.cc:74: warn: ignoring syscall mprotect(...)
build/X86/sim/syscall_emul.cc:74: warn: ignoring syscall mprotect(...)
build/X86/sim/syscall_emul.cc:74: warn: ignoring syscall set_robust_list(...)
build/X86/sim/syscall_emul.cc:74: warn: ignoring syscall mprotect(...)
build/X86/sim/syscall_emul.cc:74: warn: ignoring syscall mprotect(...)
build/X86/sim/syscall_emul.cc:74: warn: ignoring syscall set_robust_list(...)
build/X86/sim/syscall_emul.cc:74: warn: ignoring syscall mprotect(...)
build/X86/sim/syscall_emul.cc:74: warn: ignoring syscall mprotect(...)
build/X86/sim/syscall_emul.cc:74: warn: ignoring syscall set_robust_list(...)
build/X86/sim/syscall_emul.cc:74: warn: ignoring syscall mprotect(...)
build/X86/sim/syscall_emul.cc:74: warn: ignoring syscall mprotect(...)
build/X86/sim/syscall_emul.cc:74: warn: ignoring syscall set_robust_list(...)
build/X86/sim/syscall_emul.cc:74: warn: ignoring syscall mprotect(...)
build/X86/sim/syscall_emul.cc:74: warn: ignoring syscall set_robust_list(...)
build/X86/sim/syscall_emul.cc:74: warn: ignoring syscall mprotect(...)
build/X86/sim/syscall_emul.cc:74: warn: ignoring syscall mprotect(...)
build/X86/sim/syscall_emul.cc:74: warn: ignoring syscall mprotect(...)
build/X86/sim/syscall_emul.cc:74: warn: ignoring syscall set_robust_list(...)
build/X86/sim/syscall_emul.cc:74: warn: ignoring syscall mprotect(...)
build/X86/sim/syscall_emul.cc:74: warn: ignoring syscall mprotect(...)
build/X86/sim/syscall_emul.cc:74: warn: ignoring syscall set_robust_list(...)
build/X86/sim/syscall_emul.cc:74: warn: ignoring syscall mprotect(...)
build/X86/sim/syscall_emul.cc:74: warn: ignoring syscall mprotect(...)
build/X86/sim/syscall_emul.cc:74: warn: ignoring syscall set_robust_list(...)
build/X86/sim/syscall_emul.cc:74: warn: ignoring syscall mprotect(...)
build/X86/sim/syscall_emul.cc:74: warn: ignoring syscall mprotect(...)
build/X86/sim/syscall_emul.cc:74: warn: ignoring syscall set_robust_list(...)
build/X86/sim/syscall_emul.cc:74: warn: ignoring syscall mprotect(...)
build/X86/sim/syscall_emul.cc:74: warn: ignoring syscall mprotect(...)
build/X86/sim/syscall_emul.cc:74: warn: ignoring syscall set_robust_list(...)
build/X86/sim/syscall_emul.cc:74: warn: ignoring syscall mprotect(...)
build/X86/sim/process.cc:333: warn: Process::allocateMem: addr 0x7ffff7492000 already mapped
build/X86/sim/process.cc:333: warn: Process::allocateMem: addr 0x7ffff738b000 already mapped
build/X86/sim/process.cc:333: warn: Process::allocateMem: addr 0x7ffff7475000 already mapped
build/X86/sim/process.cc:333: warn: Process::allocateMem: addr 0x7ffff7411000 already mapped
build/X86/sim/process.cc:333: warn: Process::allocateMem: addr 0x7ffff7439000 already mapped
build/X86/sim/process.cc:333: warn: Process::allocateMem: addr 0x7ffff74f1000 already mapped
build/X86/sim/process.cc:333: warn: Process::allocateMem: addr 0x7ffff74e5000 already mapped
build/X86/sim/process.cc:333: warn: Process::allocateMem: addr 0x7ffff739f000 already mapped
build/X86/sim/process.cc:333: warn: Process::allocateMem: addr 0x7ffff7400000 already mapped
build/X86/sim/process.cc:333: warn: Process::allocateMem: addr 0x7ffff7382000 already mapped
build/X86/sim/process.cc:333: warn: Process::allocateMem: addr 0x7ffff74d6000 already mapped
build/X86/sim/process.cc:333: warn: Process::allocateMem: addr 0x7ffff748c000 already mapped
build/X86/sim/process.cc:333: warn: Process::allocateMem: addr 0x7ffff7427000 already mapped
build/X86/sim/process.cc:333: warn: Process::allocateMem: addr 0x7ffff7388000 already mapped
build/X86/sim/process.cc:333: warn: Process::allocateMem: addr 0x7ffff7493000 already mapped
build/X86/sim/process.cc:333: warn: Process::allocateMem: addr 0x7ffff7555000 already mapped
build/X86/sim/process.cc:333: warn: Process::allocateMem: addr 0x7ffff73b9000 already mapped
build/X86/sim/process.cc:333: warn: Process::allocateMem: addr 0x7ffff7422000 already mapped
build/X86/sim/process.cc:333: warn: Process::allocateMem: addr 0x7ffff7460000 already mapped
build/X86/sim/process.cc:333: warn: Process::allocateMem: addr 0x7ffff73a2000 already mapped
build/X86/sim/process.cc:333: warn: Process::allocateMem: addr 0x7ffff73b7000 already mapped
build/X86/sim/process.cc:333: warn: Process::allocateMem: addr 0x7ffff746d000 already mapped
build/X86/sim/process.cc:333: warn: Process::allocateMem: addr 0x7ffff743d000 already mapped
build/X86/sim/process.cc:333: warn: Process::allocateMem: addr 0x7ffff7429000 already mapped
build/X86/sim/process.cc:333: warn: Process::allocateMem: addr 0x7ffff73a7000 already mapped
build/X86/sim/process.cc:333: warn: Process::allocateMem: addr 0x7ffff748d000 already mapped
build/X86/sim/process.cc:333: warn: Process::allocateMem: addr 0x7ffff7527000 already mapped
build/X86/sim/process.cc:333: warn: Process::allocateMem: addr 0x7ffff7458000 already mapped
build/X86/sim/process.cc:333: warn: Process::allocateMem: addr 0x7ffff7528000 already mapped
build/X86/sim/process.cc:333: warn: Process::allocateMem: addr 0x7ffff7500000 already mapped
build/X86/sim/syscall_emul.cc:74: warn: ignoring syscall madvise(...)
build/X86/sim/syscall_emul.cc:74: warn: ignoring syscall madvise(...)
build/X86/sim/syscall_emul.cc:74: warn: ignoring syscall madvise(...)
build/X86/sim/syscall_emul.cc:74: warn: ignoring syscall madvise(...)
build/X86/sim/syscall_emul.cc:74: warn: ignoring syscall madvise(...)
build/X86/sim/syscall_emul.cc:74: warn: ignoring syscall madvise(...)
build/X86/sim/syscall_emul.cc:74: warn: ignoring syscall madvise(...)
build/X86/sim/syscall_emul.cc:74: warn: ignoring syscall madvise(...)
build/X86/sim/syscall_emul.cc:74: warn: ignoring syscall madvise(...)
build/X86/sim/syscall_emul.cc:74: warn: ignoring syscall madvise(...)
build/X86/sim/syscall_emul.cc:74: warn: ignoring syscall madvise(...)
build/X86/sim/syscall_emul.cc:74: warn: ignoring syscall madvise(...)
build/X86/sim/syscall_emul.cc:74: warn: ignoring syscall madvise(...)
build/X86/sim/syscall_emul.cc:74: warn: ignoring syscall madvise(...)
build/X86/sim/syscall_emul.cc:74: warn: ignoring syscall madvise(...)

                 PROCESS STATISTICS
               Total            Rank            Sort
 Proc          Time             Time            Time
    0           3283             936            2274

                 TIMING INFORMATION
Start time                        : 1000000000000028
Initialization finish time        : 1000000000002143
Overall finish time               : 1000000000005426
Total time with initialization    :             5398
Total time without initialization :             3283

	Command being timed: "./build/X86/gem5.debug /home/gem5/gem5_new/configs/mytest2/hello.py -f /home/gem5/gem5_new/ext/CMSpec/CMSpec/test/myTests/tc1_l1l2_llc_16.xml -c 16 -b RADIX -m Octopus"
	User time (seconds): 2922.86
	System time (seconds): 0.19
	Percent of CPU this job got: 99%
	Elapsed (wall clock) time (h:mm:ss or m:ss): 48:43.31
	Average shared text size (kbytes): 0
	Average unshared data size (kbytes): 0
	Average stack size (kbytes): 0
	Average total size (kbytes): 0
	Maximum resident set size (kbytes): 421272
	Average resident set size (kbytes): 0
	Major (requiring I/O) page faults: 0
	Minor (reclaiming a frame) page faults: 89629
	Voluntary context switches: 44
	Involuntary context switches: 17105
	Swaps: 0
	File system inputs: 0
	File system outputs: 4608
	Socket messages sent: 0
	Socket messages received: 0
	Signals delivered: 0
	Page size (bytes): 4096
	Exit status: 0
simTicks                                   5474045000                       # Number of ticks simulated (Tick)
finalTick                                  5474045000                       # Number of ticks from beginning of simulation (restored from checkpoints and never reset) (Tick)
board.clk_domain.clock                           1000                       # Clock period in ticks (Tick)
32
/home/gem5/gem5_new/ext/CMSpec/CMSpec/test/myTests/tc1_l1l2_llc_32.xml
Global frequency set at 1000000000000 ticks per second
build/X86/mem/dram_interface.cc:690: warn: DRAM device capacity (8192 Mbytes) does not match the address range assigned (4096 Mbytes)
simpleCache
DEBUG COH Protocol Name in XML header: MSI
/home/gem5/gem5_new/ext/CMSpec/CMSpec/test/myTests/tc1_l1l2_llc_32.xml
FSM path: /home/gem5/gem5_new/ext/CMSpec/CMSpec/Protocols_FSM/
simpleCache
simpleCache
simpleCache
simpleCache
simpleCache
simpleCache
simpleCache
simpleCache
simpleCache
simpleCache
simpleCache
simpleCache
simpleCache
simpleCache
simpleCache
simpleCache
simpleCache
simpleCache
simpleCache
simpleCache
simpleCache
simpleCache
simpleCache
simpleCache
simpleCache
simpleCache
simpleCache
simpleCache
simpleCache
simpleCache
simpleCache
build/X86/mem/coherent_xbar.cc:140: warn: CoherentXBar board.cache_hierarchy.membus has no snooping ports attached!
0: board.remote_gdb: listening for remote gdb on port 7000
gem5 Simulator System.  https://www.gem5.org
gem5 is copyrighted software; use the --copyright option for details.

gem5 version 22.1.0.0
gem5 compiled Jun 16 2024 22:09:04
gem5 started Jul  3 2024 08:21:45
gem5 executing on gem5-VirtualBox, pid 57278
command line: ./build/X86/gem5.debug /home/gem5/gem5_new/configs/mytest2/hello.py -f /home/gem5/gem5_new/ext/CMSpec/CMSpec/test/myTests/tc1_l1l2_llc_32.xml -c 32 -b RADIX -m Octopus

warn: The simulate package is still in a beta state. The gem5 project does not guarantee the APIs within this package will remain consistent across upcoming releases.
warn: No dot file generated. Please install pydot to generate the dot file and pdf.
build/X86/sim/simulate.cc:192: info: Entering event queue @ 0.  Starting simulation...
build/X86/arch/x86/cpuid.cc:180: warn: x86 cpuid family 0x0000: unimplemented function 13
build/X86/sim/syscall_emul.cc:74: warn: ignoring syscall set_robust_list(...)
build/X86/sim/syscall_emul.cc:85: warn: ignoring syscall rt_sigaction(...)
      (further warnings will be suppressed)
build/X86/sim/syscall_emul.cc:85: warn: ignoring syscall rt_sigprocmask(...)
      (further warnings will be suppressed)
build/X86/sim/mem_state.cc:443: info: Increasing stack size by one page.
build/X86/sim/syscall_emul.hh:1016: warn: readlink() called on '/proc/self/exe' may yield unexpected results in various settings.
      Returning '/home/gem5/splash/splash2/codes/kernels/radix/RADIX'
build/X86/sim/syscall_emul.cc:74: warn: ignoring syscall mprotect(...)

Integer Radix Sort
     262144 Keys
     32 Processors
     Radix = 1024
     Max key = 524288

build/X86/sim/syscall_emul.cc:74: warn: ignoring syscall mprotect(...)
build/X86/sim/power_state.cc:105: warn: PowerState: Already in the requested power state, request ignored
build/X86/sim/syscall_emul.cc:74: warn: ignoring syscall set_robust_list(...)
build/X86/sim/syscall_emul.cc:74: warn: ignoring syscall mprotect(...)
build/X86/sim/syscall_emul.cc:74: warn: ignoring syscall mprotect(...)
build/X86/sim/syscall_emul.cc:74: warn: ignoring syscall set_robust_list(...)
build/X86/sim/syscall_emul.cc:74: warn: ignoring syscall mprotect(...)
build/X86/sim/syscall_emul.cc:74: warn: ignoring syscall mprotect(...)
build/X86/sim/syscall_emul.cc:74: warn: ignoring syscall set_robust_list(...)
build/X86/sim/syscall_emul.cc:74: warn: ignoring syscall mprotect(...)
build/X86/sim/syscall_emul.cc:74: warn: ignoring syscall mprotect(...)
build/X86/sim/syscall_emul.cc:74: warn: ignoring syscall set_robust_list(...)
build/X86/sim/syscall_emul.cc:74: warn: ignoring syscall mprotect(...)
build/X86/sim/syscall_emul.cc:74: warn: ignoring syscall mprotect(...)
build/X86/sim/syscall_emul.cc:74: warn: ignoring syscall set_robust_list(...)
build/X86/sim/syscall_emul.cc:74: warn: ignoring syscall mprotect(...)
build/X86/sim/syscall_emul.cc:74: warn: ignoring syscall mprotect(...)
build/X86/sim/syscall_emul.cc:74: warn: ignoring syscall set_robust_list(...)
build/X86/sim/syscall_emul.cc:74: warn: ignoring syscall mprotect(...)
build/X86/sim/syscall_emul.cc:74: warn: ignoring syscall mprotect(...)
build/X86/sim/syscall_emul.cc:74: warn: ignoring syscall set_robust_list(...)
build/X86/sim/syscall_emul.cc:74: warn: ignoring syscall mprotect(...)
build/X86/sim/syscall_emul.cc:74: warn: ignoring syscall mprotect(...)
build/X86/sim/syscall_emul.cc:74: warn: ignoring syscall set_robust_list(...)
build/X86/sim/syscall_emul.cc:74: warn: ignoring syscall mprotect(...)
build/X86/sim/syscall_emul.cc:74: warn: ignoring syscall mprotect(...)
build/X86/sim/syscall_emul.cc:74: warn: ignoring syscall set_robust_list(...)
build/X86/sim/syscall_emul.cc:74: warn: ignoring syscall mprotect(...)
build/X86/sim/syscall_emul.cc:74: warn: ignoring syscall set_robust_list(...)
build/X86/sim/syscall_emul.cc:74: warn: ignoring syscall mprotect(...)
build/X86/sim/syscall_emul.cc:74: warn: ignoring syscall mprotect(...)
build/X86/sim/syscall_emul.cc:74: warn: ignoring syscall mprotect(...)
build/X86/sim/syscall_emul.cc:74: warn: ignoring syscall set_robust_list(...)
build/X86/sim/syscall_emul.cc:74: warn: ignoring syscall mprotect(...)
build/X86/sim/syscall_emul.cc:74: warn: ignoring syscall mprotect(...)
build/X86/sim/syscall_emul.cc:74: warn: ignoring syscall set_robust_list(...)
build/X86/sim/syscall_emul.cc:74: warn: ignoring syscall mprotect(...)
build/X86/sim/syscall_emul.cc:74: warn: ignoring syscall mprotect(...)
build/X86/sim/syscall_emul.cc:74: warn: ignoring syscall set_robust_list(...)
build/X86/sim/syscall_emul.cc:74: warn: ignoring syscall mprotect(...)
build/X86/sim/syscall_emul.cc:74: warn: ignoring syscall mprotect(...)
build/X86/sim/syscall_emul.cc:74: warn: ignoring syscall set_robust_list(...)
build/X86/sim/syscall_emul.cc:74: warn: ignoring syscall mprotect(...)
build/X86/sim/syscall_emul.cc:74: warn: ignoring syscall mprotect(...)
build/X86/sim/syscall_emul.cc:74: warn: ignoring syscall set_robust_list(...)
build/X86/sim/syscall_emul.cc:74: warn: ignoring syscall mprotect(...)
build/X86/sim/syscall_emul.cc:74: warn: ignoring syscall mprotect(...)
build/X86/sim/syscall_emul.cc:74: warn: ignoring syscall set_robust_list(...)
build/X86/sim/syscall_emul.cc:74: warn: ignoring syscall mprotect(...)
build/X86/sim/syscall_emul.cc:74: warn: ignoring syscall mprotect(...)
build/X86/sim/syscall_emul.cc:74: warn: ignoring syscall set_robust_list(...)
build/X86/sim/syscall_emul.cc:74: warn: ignoring syscall mprotect(...)
build/X86/sim/syscall_emul.cc:74: warn: ignoring syscall mprotect(...)
build/X86/sim/syscall_emul.cc:74: warn: ignoring syscall set_robust_list(...)
build/X86/sim/syscall_emul.cc:74: warn: ignoring syscall mprotect(...)
build/X86/sim/syscall_emul.cc:74: warn: ignoring syscall mprotect(...)
build/X86/sim/syscall_emul.cc:74: warn: ignoring syscall set_robust_list(...)
build/X86/sim/syscall_emul.cc:74: warn: ignoring syscall mprotect(...)
build/X86/sim/syscall_emul.cc:74: warn: ignoring syscall mprotect(...)
build/X86/sim/syscall_emul.cc:74: warn: ignoring syscall set_robust_list(...)
build/X86/sim/syscall_emul.cc:74: warn: ignoring syscall mprotect(...)
build/X86/sim/syscall_emul.cc:74: warn: ignoring syscall mprotect(...)
build/X86/sim/syscall_emul.cc:74: warn: ignoring syscall set_robust_list(...)
build/X86/sim/syscall_emul.cc:74: warn: ignoring syscall mprotect(...)
build/X86/sim/syscall_emul.cc:74: warn: ignoring syscall mprotect(...)
build/X86/sim/syscall_emul.cc:74: warn: ignoring syscall set_robust_list(...)
build/X86/sim/syscall_emul.cc:74: warn: ignoring syscall mprotect(...)
build/X86/sim/syscall_emul.cc:74: warn: ignoring syscall mprotect(...)
build/X86/sim/syscall_emul.cc:74: warn: ignoring syscall set_robust_list(...)
build/X86/sim/syscall_emul.cc:74: warn: ignoring syscall mprotect(...)
build/X86/sim/syscall_emul.cc:74: warn: ignoring syscall mprotect(...)
build/X86/sim/syscall_emul.cc:74: warn: ignoring syscall set_robust_list(...)
build/X86/sim/syscall_emul.cc:74: warn: ignoring syscall mprotect(...)
build/X86/sim/syscall_emul.cc:74: warn: ignoring syscall mprotect(...)
build/X86/sim/syscall_emul.cc:74: warn: ignoring syscall set_robust_list(...)
build/X86/sim/syscall_emul.cc:74: warn: ignoring syscall mprotect(...)
build/X86/sim/syscall_emul.cc:74: warn: ignoring syscall mprotect(...)
build/X86/sim/syscall_emul.cc:74: warn: ignoring syscall set_robust_list(...)
build/X86/sim/syscall_emul.cc:74: warn: ignoring syscall mprotect(...)
build/X86/sim/syscall_emul.cc:74: warn: ignoring syscall mprotect(...)
build/X86/sim/syscall_emul.cc:74: warn: ignoring syscall set_robust_list(...)
build/X86/sim/syscall_emul.cc:74: warn: ignoring syscall mprotect(...)
build/X86/sim/syscall_emul.cc:74: warn: ignoring syscall mprotect(...)
build/X86/sim/syscall_emul.cc:74: warn: ignoring syscall set_robust_list(...)
build/X86/sim/syscall_emul.cc:74: warn: ignoring syscall mprotect(...)
build/X86/sim/syscall_emul.cc:74: warn: ignoring syscall mprotect(...)
build/X86/sim/syscall_emul.cc:74: warn: ignoring syscall set_robust_list(...)
build/X86/sim/syscall_emul.cc:74: warn: ignoring syscall mprotect(...)
build/X86/sim/syscall_emul.cc:74: warn: ignoring syscall mprotect(...)
build/X86/sim/syscall_emul.cc:74: warn: ignoring syscall set_robust_list(...)
build/X86/sim/syscall_emul.cc:74: warn: ignoring syscall mprotect(...)
build/X86/sim/syscall_emul.cc:74: warn: ignoring syscall mprotect(...)
build/X86/sim/syscall_emul.cc:74: warn: ignoring syscall set_robust_list(...)
build/X86/sim/syscall_emul.cc:74: warn: ignoring syscall mprotect(...)
build/X86/sim/process.cc:333: warn: Process::allocateMem: addr 0x7ffff742c000 already mapped
build/X86/sim/process.cc:333: warn: Process::allocateMem: addr 0x7ffff73ef000 already mapped
build/X86/sim/process.cc:333: warn: Process::allocateMem: addr 0x7ffff750d000 already mapped
build/X86/sim/process.cc:333: warn: Process::allocateMem: addr 0x7ffff74c2000 already mapped
build/X86/sim/process.cc:333: warn: Process::allocateMem: addr 0x7ffff7432000 already mapped
build/X86/sim/process.cc:333: warn: Process::allocateMem: addr 0x7ffff74b7000 already mapped
build/X86/sim/process.cc:333: warn: Process::allocateMem: addr 0x7ffff756b000 already mapped
build/X86/sim/process.cc:333: warn: Process::allocateMem: addr 0x7ffff7403000 already mapped
build/X86/sim/process.cc:333: warn: Process::allocateMem: addr 0x7ffff748d000 already mapped
build/X86/sim/process.cc:333: warn: Process::allocateMem: addr 0x7ffff7448000 already mapped
build/X86/sim/process.cc:333: warn: Process::allocateMem: addr 0x7ffff73c3000 already mapped
build/X86/sim/process.cc:333: warn: Process::allocateMem: addr 0x7ffff750e000 already mapped
build/X86/sim/process.cc:333: warn: Process::allocateMem: addr 0x7ffff744c000 already mapped
build/X86/sim/process.cc:333: warn: Process::allocateMem: addr 0x7ffff7521000 already mapped
build/X86/sim/process.cc:333: warn: Process::allocateMem: addr 0x7ffff738c000 already mapped
build/X86/sim/process.cc:333: warn: Process::allocateMem: addr 0x7ffff73ec000 already mapped
build/X86/sim/process.cc:333: warn: Process::allocateMem: addr 0x7ffff7528000 already mapped
build/X86/sim/process.cc:333: warn: Process::allocateMem: addr 0x7ffff73c6000 already mapped
build/X86/sim/syscall_emul.cc:74: warn: ignoring syscall madvise(...)
build/X86/sim/syscall_emul.cc:74: warn: ignoring syscall madvise(...)
build/X86/sim/syscall_emul.cc:74: warn: ignoring syscall madvise(...)
build/X86/sim/syscall_emul.cc:74: warn: ignoring syscall madvise(...)
build/X86/sim/syscall_emul.cc:74: warn: ignoring syscall madvise(...)
build/X86/sim/syscall_emul.cc:74: warn: ignoring syscall madvise(...)
build/X86/sim/syscall_emul.cc:74: warn: ignoring syscall madvise(...)
build/X86/sim/syscall_emul.cc:74: warn: ignoring syscall madvise(...)
build/X86/sim/syscall_emul.cc:74: warn: ignoring syscall madvise(...)
build/X86/sim/syscall_emul.cc:74: warn: ignoring syscall madvise(...)
build/X86/sim/syscall_emul.cc:74: warn: ignoring syscall madvise(...)
build/X86/sim/syscall_emul.cc:74: warn: ignoring syscall madvise(...)
build/X86/sim/syscall_emul.cc:74: warn: ignoring syscall madvise(...)
build/X86/sim/syscall_emul.cc:74: warn: ignoring syscall madvise(...)
build/X86/sim/syscall_emul.cc:74: warn: ignoring syscall madvise(...)
build/X86/sim/syscall_emul.cc:74: warn: ignoring syscall madvise(...)
build/X86/sim/syscall_emul.cc:74: warn: ignoring syscall madvise(...)
build/X86/sim/syscall_emul.cc:74: warn: ignoring syscall madvise(...)
build/X86/sim/syscall_emul.cc:74: warn: ignoring syscall madvise(...)
build/X86/sim/syscall_emul.cc:74: warn: ignoring syscall madvise(...)
build/X86/sim/syscall_emul.cc:74: warn: ignoring syscall madvise(...)
build/X86/sim/syscall_emul.cc:74: warn: ignoring syscall madvise(...)
build/X86/sim/syscall_emul.cc:74: warn: ignoring syscall madvise(...)
build/X86/sim/syscall_emul.cc:74: warn: ignoring syscall madvise(...)
build/X86/sim/syscall_emul.cc:74: warn: ignoring syscall madvise(...)
build/X86/sim/syscall_emul.cc:74: warn: ignoring syscall madvise(...)
build/X86/sim/syscall_emul.cc:74: warn: ignoring syscall madvise(...)
build/X86/sim/syscall_emul.cc:74: warn: ignoring syscall madvise(...)
build/X86/sim/syscall_emul.cc:74: warn: ignoring syscall madvise(...)
build/X86/sim/syscall_emul.cc:74: warn: ignoring syscall madvise(...)
build/X86/sim/syscall_emul.cc:74: warn: ignoring syscall madvise(...)

                 PROCESS STATISTICS
               Total            Rank            Sort
 Proc          Time             Time            Time
    0           5222            1445            3340

                 TIMING INFORMATION
Start time                        : 1000000000000028
Initialization finish time        : 1000000000001197
Overall finish time               : 1000000000006419
Total time with initialization    :             6391
Total time without initialization :             5222

	Command being timed: "./build/X86/gem5.debug /home/gem5/gem5_new/configs/mytest2/hello.py -f /home/gem5/gem5_new/ext/CMSpec/CMSpec/test/myTests/tc1_l1l2_llc_32.xml -c 32 -b RADIX -m Octopus"
	User time (seconds): 4527.63
	System time (seconds): 0.24
	Percent of CPU this job got: 99%
	Elapsed (wall clock) time (h:mm:ss or m:ss): 1:15:28
	Average shared text size (kbytes): 0
	Average unshared data size (kbytes): 0
	Average stack size (kbytes): 0
	Average total size (kbytes): 0
	Maximum resident set size (kbytes): 661476
	Average resident set size (kbytes): 0
	Major (requiring I/O) page faults: 0
	Minor (reclaiming a frame) page faults: 145921
	Voluntary context switches: 46
	Involuntary context switches: 38334
	Swaps: 0
	File system inputs: 0
	File system outputs: 8944
	Socket messages sent: 0
	Socket messages received: 0
	Signals delivered: 0
	Page size (bytes): 4096
	Exit status: 0
simTicks                                   6490950000                       # Number of ticks simulated (Tick)
finalTick                                  6490950000                       # Number of ticks from beginning of simulation (restored from checkpoints and never reset) (Tick)
board.clk_domain.clock                           1000                       # Clock period in ticks (Tick)
