2
Global frequency set at 1000000000000 ticks per second
build/X86/mem/dram_interface.cc:690: warn: DRAM device capacity (8192 Mbytes) does not match the address range assigned (4096 Mbytes)
build/X86/base/statistics.hh:280: warn: One of the stats is a legacy stat. Legacy stat is a stat that does not belong to any statistics::Group. Legacy stat is deprecated.
0: board.remote_gdb: listening for remote gdb on port 7000
gem5 Simulator System.  https://www.gem5.org
gem5 is copyrighted software; use the --copyright option for details.

gem5 version 22.1.0.0
gem5 compiled Jun 11 2024 23:59:17
gem5 started Jun 14 2024 04:27:13
gem5 executing on gem5-VirtualBox, pid 187669
command line: ./build/X86/gem5.debug /home/gem5/gem5_new/configs/mytest2/hello.py -c 2 -b Threads

warn: The simulate package is still in a beta state. The gem5 project does not guarantee the APIs within this package will remain consistent across upcoming releases.
warn: No dot file generated. Please install pydot to generate the dot file and pdf.
build/X86/sim/simulate.cc:192: info: Entering event queue @ 0.  Starting simulation...
build/X86/mem/ruby/system/Sequencer.cc:613: warn: Replacement policy updates recently became the responsibility of SLICC state machines. Make sure to setMRU() near callbacks in .sm files!
build/X86/arch/x86/cpuid.cc:180: warn: x86 cpuid family 0x0000: unimplemented function 13
build/X86/sim/mem_state.cc:443: info: Increasing stack size by one page.
build/X86/sim/syscall_emul.cc:74: warn: ignoring syscall mprotect(...)
build/X86/sim/syscall_emul.cc:74: warn: ignoring syscall mprotect(...)
build/X86/sim/syscall_emul.cc:74: warn: ignoring syscall mprotect(...)
build/X86/sim/syscall_emul.cc:74: warn: ignoring syscall mprotect(...)
build/X86/sim/syscall_emul.cc:74: warn: ignoring syscall mprotect(...)
build/X86/sim/syscall_emul.cc:74: warn: ignoring syscall mprotect(...)
build/X86/sim/syscall_emul.cc:74: warn: ignoring syscall mprotect(...)
build/X86/sim/syscall_emul.cc:74: warn: ignoring syscall mprotect(...)
build/X86/sim/syscall_emul.cc:74: warn: ignoring syscall set_robust_list(...)
build/X86/sim/syscall_emul.cc:85: warn: ignoring syscall rt_sigaction(...)
      (further warnings will be suppressed)
build/X86/sim/syscall_emul.cc:85: warn: ignoring syscall rt_sigprocmask(...)
      (further warnings will be suppressed)
build/X86/sim/mem_state.cc:443: info: Increasing stack size by one page.
build/X86/arch/x86/generated/exec-ns.cc.inc:27: warn: instruction 'palignr_Vdq_Wdq_Ib' unimplemented
build/X86/arch/x86/generated/exec-ns.cc.inc:27: warn: instruction 'palignr_Vdq_Wdq_Ib' unimplemented
build/X86/arch/x86/generated/exec-ns.cc.inc:27: warn: instruction 'palignr_Vdq_Wdq_Ib' unimplemented
build/X86/arch/x86/generated/exec-ns.cc.inc:27: warn: instruction 'palignr_Vdq_Wdq_Ib' unimplemented
Running on 2 cores. with 409600 values
build/X86/sim/syscall_emul.cc:74: warn: ignoring syscall mprotect(...)
build/X86/sim/power_state.cc:105: warn: PowerState: Already in the requested power state, request ignored
build/X86/sim/syscall_emul.cc:74: warn: ignoring syscall set_robust_list(...)
Waiting for other threads to complete
build/X86/sim/syscall_emul.cc:74: warn: ignoring syscall mprotect(...)
Validating...build/X86/sim/syscall_emul.cc:74: warn: ignoring syscall madvise(...)
Success!
	Command being timed: "./build/X86/gem5.debug /home/gem5/gem5_new/configs/mytest2/hello.py -c 2 -b Threads"
	User time (seconds): 1601.47
	System time (seconds): 0.26
	Percent of CPU this job got: 99%
	Elapsed (wall clock) time (h:mm:ss or m:ss): 26:42.03
	Average shared text size (kbytes): 0
	Average unshared data size (kbytes): 0
	Average stack size (kbytes): 0
	Average total size (kbytes): 0
	Maximum resident set size (kbytes): 718864
	Average resident set size (kbytes): 0
	Major (requiring I/O) page faults: 0
	Minor (reclaiming a frame) page faults: 167944
	Voluntary context switches: 9
	Involuntary context switches: 13807
	Swaps: 0
	File system inputs: 0
	File system outputs: 1504
	Socket messages sent: 0
	Socket messages received: 0
	Signals delivered: 0
	Page size (bytes): 4096
	Exit status: 0
3
Global frequency set at 1000000000000 ticks per second
build/X86/mem/dram_interface.cc:690: warn: DRAM device capacity (8192 Mbytes) does not match the address range assigned (4096 Mbytes)
build/X86/base/statistics.hh:280: warn: One of the stats is a legacy stat. Legacy stat is a stat that does not belong to any statistics::Group. Legacy stat is deprecated.
0: board.remote_gdb: listening for remote gdb on port 7000
gem5 Simulator System.  https://www.gem5.org
gem5 is copyrighted software; use the --copyright option for details.

gem5 version 22.1.0.0
gem5 compiled Jun 11 2024 23:59:17
gem5 started Jun 14 2024 04:53:55
gem5 executing on gem5-VirtualBox, pid 187729
command line: ./build/X86/gem5.debug /home/gem5/gem5_new/configs/mytest2/hello.py -c 3 -b Threads

warn: The simulate package is still in a beta state. The gem5 project does not guarantee the APIs within this package will remain consistent across upcoming releases.
warn: No dot file generated. Please install pydot to generate the dot file and pdf.
build/X86/sim/simulate.cc:192: info: Entering event queue @ 0.  Starting simulation...
build/X86/mem/ruby/system/Sequencer.cc:613: warn: Replacement policy updates recently became the responsibility of SLICC state machines. Make sure to setMRU() near callbacks in .sm files!
build/X86/arch/x86/cpuid.cc:180: warn: x86 cpuid family 0x0000: unimplemented function 13
build/X86/sim/mem_state.cc:443: info: Increasing stack size by one page.
build/X86/sim/syscall_emul.cc:74: warn: ignoring syscall mprotect(...)
build/X86/sim/syscall_emul.cc:74: warn: ignoring syscall mprotect(...)
build/X86/sim/syscall_emul.cc:74: warn: ignoring syscall mprotect(...)
build/X86/sim/syscall_emul.cc:74: warn: ignoring syscall mprotect(...)
build/X86/sim/syscall_emul.cc:74: warn: ignoring syscall mprotect(...)
build/X86/sim/syscall_emul.cc:74: warn: ignoring syscall mprotect(...)
build/X86/sim/syscall_emul.cc:74: warn: ignoring syscall mprotect(...)
build/X86/sim/syscall_emul.cc:74: warn: ignoring syscall mprotect(...)
build/X86/sim/syscall_emul.cc:74: warn: ignoring syscall set_robust_list(...)
build/X86/sim/syscall_emul.cc:85: warn: ignoring syscall rt_sigaction(...)
      (further warnings will be suppressed)
build/X86/sim/syscall_emul.cc:85: warn: ignoring syscall rt_sigprocmask(...)
      (further warnings will be suppressed)
build/X86/sim/mem_state.cc:443: info: Increasing stack size by one page.
build/X86/arch/x86/generated/exec-ns.cc.inc:27: warn: instruction 'palignr_Vdq_Wdq_Ib' unimplemented
build/X86/arch/x86/generated/exec-ns.cc.inc:27: warn: instruction 'palignr_Vdq_Wdq_Ib' unimplemented
build/X86/arch/x86/generated/exec-ns.cc.inc:27: warn: instruction 'palignr_Vdq_Wdq_Ib' unimplemented
build/X86/arch/x86/generated/exec-ns.cc.inc:27: warn: instruction 'palignr_Vdq_Wdq_Ib' unimplemented
Running on 3 cores. with 409600 values
build/X86/sim/syscall_emul.cc:74: warn: ignoring syscall mprotect(...)
build/X86/sim/power_state.cc:105: warn: PowerState: Already in the requested power state, request ignored
build/X86/sim/syscall_emul.cc:74: warn: ignoring syscall set_robust_list(...)
build/X86/sim/syscall_emul.cc:74: warn: ignoring syscall mprotect(...)
build/X86/sim/syscall_emul.cc:74: warn: ignoring syscall set_robust_list(...)
Waiting for other threads to complete
build/X86/sim/process.cc:333: warn: Process::allocateMem: addr 0x7ffff7c6f000 already mapped
build/X86/sim/syscall_emul.cc:74: warn: ignoring syscall mprotect(...)
build/X86/sim/syscall_emul.cc:74: warn: ignoring syscall mprotect(...)
build/X86/sim/process.cc:333: warn: Process::allocateMem: addr 0x7ffff7c70000 already mapped
Validating...build/X86/sim/process.cc:333: warn: Process::allocateMem: addr 0x7ffff7d2d000 already mapped
build/X86/sim/process.cc:333: warn: Process::allocateMem: addr 0x7ffff7d1b000 already mapped
build/X86/sim/syscall_emul.cc:74: warn: ignoring syscall madvise(...)
build/X86/sim/syscall_emul.cc:74: warn: ignoring syscall madvise(...)
Success!
	Command being timed: "./build/X86/gem5.debug /home/gem5/gem5_new/configs/mytest2/hello.py -c 3 -b Threads"
	User time (seconds): 1624.69
	System time (seconds): 0.33
	Percent of CPU this job got: 99%
	Elapsed (wall clock) time (h:mm:ss or m:ss): 27:05.18
	Average shared text size (kbytes): 0
	Average unshared data size (kbytes): 0
	Average stack size (kbytes): 0
	Average total size (kbytes): 0
	Maximum resident set size (kbytes): 736592
	Average resident set size (kbytes): 0
	Major (requiring I/O) page faults: 0
	Minor (reclaiming a frame) page faults: 172611
	Voluntary context switches: 9
	Involuntary context switches: 9450
	Swaps: 0
	File system inputs: 0
	File system outputs: 2096
	Socket messages sent: 0
	Socket messages received: 0
	Signals delivered: 0
	Page size (bytes): 4096
	Exit status: 0
4
Global frequency set at 1000000000000 ticks per second
build/X86/mem/dram_interface.cc:690: warn: DRAM device capacity (8192 Mbytes) does not match the address range assigned (4096 Mbytes)
build/X86/base/statistics.hh:280: warn: One of the stats is a legacy stat. Legacy stat is a stat that does not belong to any statistics::Group. Legacy stat is deprecated.
0: board.remote_gdb: listening for remote gdb on port 7000
gem5 Simulator System.  https://www.gem5.org
gem5 is copyrighted software; use the --copyright option for details.

gem5 version 22.1.0.0
gem5 compiled Jun 11 2024 23:59:17
gem5 started Jun 14 2024 05:21:00
gem5 executing on gem5-VirtualBox, pid 187769
command line: ./build/X86/gem5.debug /home/gem5/gem5_new/configs/mytest2/hello.py -c 4 -b Threads

warn: The simulate package is still in a beta state. The gem5 project does not guarantee the APIs within this package will remain consistent across upcoming releases.
warn: No dot file generated. Please install pydot to generate the dot file and pdf.
build/X86/sim/simulate.cc:192: info: Entering event queue @ 0.  Starting simulation...
build/X86/mem/ruby/system/Sequencer.cc:613: warn: Replacement policy updates recently became the responsibility of SLICC state machines. Make sure to setMRU() near callbacks in .sm files!
build/X86/arch/x86/cpuid.cc:180: warn: x86 cpuid family 0x0000: unimplemented function 13
build/X86/sim/mem_state.cc:443: info: Increasing stack size by one page.
build/X86/sim/syscall_emul.cc:74: warn: ignoring syscall mprotect(...)
build/X86/sim/syscall_emul.cc:74: warn: ignoring syscall mprotect(...)
build/X86/sim/syscall_emul.cc:74: warn: ignoring syscall mprotect(...)
build/X86/sim/syscall_emul.cc:74: warn: ignoring syscall mprotect(...)
build/X86/sim/syscall_emul.cc:74: warn: ignoring syscall mprotect(...)
build/X86/sim/syscall_emul.cc:74: warn: ignoring syscall mprotect(...)
build/X86/sim/syscall_emul.cc:74: warn: ignoring syscall mprotect(...)
build/X86/sim/syscall_emul.cc:74: warn: ignoring syscall mprotect(...)
build/X86/sim/syscall_emul.cc:74: warn: ignoring syscall set_robust_list(...)
build/X86/sim/syscall_emul.cc:85: warn: ignoring syscall rt_sigaction(...)
      (further warnings will be suppressed)
build/X86/sim/syscall_emul.cc:85: warn: ignoring syscall rt_sigprocmask(...)
      (further warnings will be suppressed)
build/X86/sim/mem_state.cc:443: info: Increasing stack size by one page.
build/X86/arch/x86/generated/exec-ns.cc.inc:27: warn: instruction 'palignr_Vdq_Wdq_Ib' unimplemented
build/X86/arch/x86/generated/exec-ns.cc.inc:27: warn: instruction 'palignr_Vdq_Wdq_Ib' unimplemented
build/X86/arch/x86/generated/exec-ns.cc.inc:27: warn: instruction 'palignr_Vdq_Wdq_Ib' unimplemented
build/X86/arch/x86/generated/exec-ns.cc.inc:27: warn: instruction 'palignr_Vdq_Wdq_Ib' unimplemented
Running on 4 cores. with 409600 values
build/X86/sim/syscall_emul.cc:74: warn: ignoring syscall mprotect(...)
build/X86/sim/power_state.cc:105: warn: PowerState: Already in the requested power state, request ignored
build/X86/sim/syscall_emul.cc:74: warn: ignoring syscall set_robust_list(...)
build/X86/sim/syscall_emul.cc:74: warn: ignoring syscall mprotect(...)
build/X86/sim/syscall_emul.cc:74: warn: ignoring syscall set_robust_list(...)
build/X86/sim/syscall_emul.cc:74: warn: ignoring syscall mprotect(...)
build/X86/sim/syscall_emul.cc:74: warn: ignoring syscall set_robust_list(...)
Waiting for other threads to complete
build/X86/sim/process.cc:333: warn: Process::allocateMem: addr 0x7ffff7c6f000 already mapped
build/X86/sim/process.cc:333: warn: Process::allocateMem: addr 0x7ffff7c6f000 already mapped
build/X86/sim/syscall_emul.cc:74: warn: ignoring syscall mprotect(...)
build/X86/sim/syscall_emul.cc:74: warn: ignoring syscall mprotect(...)
build/X86/sim/syscall_emul.cc:74: warn: ignoring syscall mprotect(...)
build/X86/sim/process.cc:333: warn: Process::allocateMem: addr 0x7ffff7c70000 already mapped
build/X86/sim/process.cc:333: warn: Process::allocateMem: addr 0x7ffff7c70000 already mapped
Validating...build/X86/sim/process.cc:333: warn: Process::allocateMem: addr 0x7ffff7d2d000 already mapped
build/X86/sim/process.cc:333: warn: Process::allocateMem: addr 0x7ffff7d2d000 already mapped
build/X86/sim/process.cc:333: warn: Process::allocateMem: addr 0x7ffff7d1b000 already mapped
build/X86/sim/process.cc:333: warn: Process::allocateMem: addr 0x7ffff7d1b000 already mapped
build/X86/sim/syscall_emul.cc:74: warn: ignoring syscall madvise(...)
build/X86/sim/syscall_emul.cc:74: warn: ignoring syscall madvise(...)
build/X86/sim/syscall_emul.cc:74: warn: ignoring syscall madvise(...)
Success!
	Command being timed: "./build/X86/gem5.debug /home/gem5/gem5_new/configs/mytest2/hello.py -c 4 -b Threads"
	User time (seconds): 1701.77
	System time (seconds): 0.30
	Percent of CPU this job got: 99%
	Elapsed (wall clock) time (h:mm:ss or m:ss): 28:22.58
	Average shared text size (kbytes): 0
	Average unshared data size (kbytes): 0
	Average stack size (kbytes): 0
	Average total size (kbytes): 0
	Maximum resident set size (kbytes): 755068
	Average resident set size (kbytes): 0
	Major (requiring I/O) page faults: 0
	Minor (reclaiming a frame) page faults: 176986
	Voluntary context switches: 10
	Involuntary context switches: 14236
	Swaps: 0
	File system inputs: 0
	File system outputs: 2784
	Socket messages sent: 0
	Socket messages received: 0
	Signals delivered: 0
	Page size (bytes): 4096
	Exit status: 0
5
Global frequency set at 1000000000000 ticks per second
build/X86/mem/dram_interface.cc:690: warn: DRAM device capacity (8192 Mbytes) does not match the address range assigned (4096 Mbytes)
build/X86/base/statistics.hh:280: warn: One of the stats is a legacy stat. Legacy stat is a stat that does not belong to any statistics::Group. Legacy stat is deprecated.
0: board.remote_gdb: listening for remote gdb on port 7000
gem5 Simulator System.  https://www.gem5.org
gem5 is copyrighted software; use the --copyright option for details.

gem5 version 22.1.0.0
gem5 compiled Jun 11 2024 23:59:17
gem5 started Jun 14 2024 05:49:22
gem5 executing on gem5-VirtualBox, pid 187787
command line: ./build/X86/gem5.debug /home/gem5/gem5_new/configs/mytest2/hello.py -c 5 -b Threads

warn: The simulate package is still in a beta state. The gem5 project does not guarantee the APIs within this package will remain consistent across upcoming releases.
warn: No dot file generated. Please install pydot to generate the dot file and pdf.
build/X86/sim/simulate.cc:192: info: Entering event queue @ 0.  Starting simulation...
build/X86/mem/ruby/system/Sequencer.cc:613: warn: Replacement policy updates recently became the responsibility of SLICC state machines. Make sure to setMRU() near callbacks in .sm files!
build/X86/arch/x86/cpuid.cc:180: warn: x86 cpuid family 0x0000: unimplemented function 13
build/X86/sim/mem_state.cc:443: info: Increasing stack size by one page.
build/X86/sim/syscall_emul.cc:74: warn: ignoring syscall mprotect(...)
build/X86/sim/syscall_emul.cc:74: warn: ignoring syscall mprotect(...)
build/X86/sim/syscall_emul.cc:74: warn: ignoring syscall mprotect(...)
build/X86/sim/syscall_emul.cc:74: warn: ignoring syscall mprotect(...)
build/X86/sim/syscall_emul.cc:74: warn: ignoring syscall mprotect(...)
build/X86/sim/syscall_emul.cc:74: warn: ignoring syscall mprotect(...)
build/X86/sim/syscall_emul.cc:74: warn: ignoring syscall mprotect(...)
build/X86/sim/syscall_emul.cc:74: warn: ignoring syscall mprotect(...)
build/X86/sim/syscall_emul.cc:74: warn: ignoring syscall set_robust_list(...)
build/X86/sim/syscall_emul.cc:85: warn: ignoring syscall rt_sigaction(...)
      (further warnings will be suppressed)
build/X86/sim/syscall_emul.cc:85: warn: ignoring syscall rt_sigprocmask(...)
      (further warnings will be suppressed)
build/X86/sim/mem_state.cc:443: info: Increasing stack size by one page.
build/X86/arch/x86/generated/exec-ns.cc.inc:27: warn: instruction 'palignr_Vdq_Wdq_Ib' unimplemented
build/X86/arch/x86/generated/exec-ns.cc.inc:27: warn: instruction 'palignr_Vdq_Wdq_Ib' unimplemented
build/X86/arch/x86/generated/exec-ns.cc.inc:27: warn: instruction 'palignr_Vdq_Wdq_Ib' unimplemented
build/X86/arch/x86/generated/exec-ns.cc.inc:27: warn: instruction 'palignr_Vdq_Wdq_Ib' unimplemented
Running on 5 cores. with 409600 values
build/X86/sim/syscall_emul.cc:74: warn: ignoring syscall mprotect(...)
build/X86/sim/power_state.cc:105: warn: PowerState: Already in the requested power state, request ignored
build/X86/sim/syscall_emul.cc:74: warn: ignoring syscall set_robust_list(...)
build/X86/sim/syscall_emul.cc:74: warn: ignoring syscall mprotect(...)
build/X86/sim/syscall_emul.cc:74: warn: ignoring syscall set_robust_list(...)
build/X86/sim/syscall_emul.cc:74: warn: ignoring syscall mprotect(...)
build/X86/sim/syscall_emul.cc:74: warn: ignoring syscall set_robust_list(...)
build/X86/sim/syscall_emul.cc:74: warn: ignoring syscall mprotect(...)
build/X86/sim/syscall_emul.cc:74: warn: ignoring syscall set_robust_list(...)
Waiting for other threads to complete
build/X86/sim/process.cc:333: warn: Process::allocateMem: addr 0x7ffff7c6f000 already mapped
build/X86/sim/process.cc:333: warn: Process::allocateMem: addr 0x7ffff7c6f000 already mapped
build/X86/sim/process.cc:333: warn: Process::allocateMem: addr 0x7ffff7c6f000 already mapped
build/X86/sim/syscall_emul.cc:74: warn: ignoring syscall mprotect(...)
build/X86/sim/syscall_emul.cc:74: warn: ignoring syscall mprotect(...)
build/X86/sim/syscall_emul.cc:74: warn: ignoring syscall mprotect(...)
build/X86/sim/syscall_emul.cc:74: warn: ignoring syscall mprotect(...)
build/X86/sim/process.cc:333: warn: Process::allocateMem: addr 0x7ffff7c70000 already mapped
build/X86/sim/process.cc:333: warn: Process::allocateMem: addr 0x7ffff7c70000 already mapped
build/X86/sim/process.cc:333: warn: Process::allocateMem: addr 0x7ffff7c70000 already mapped
Validating...build/X86/sim/process.cc:333: warn: Process::allocateMem: addr 0x7ffff7d2d000 already mapped
build/X86/sim/process.cc:333: warn: Process::allocateMem: addr 0x7ffff7d2d000 already mapped
build/X86/sim/process.cc:333: warn: Process::allocateMem: addr 0x7ffff7d2d000 already mapped
build/X86/sim/process.cc:333: warn: Process::allocateMem: addr 0x7ffff7d1b000 already mapped
build/X86/sim/process.cc:333: warn: Process::allocateMem: addr 0x7ffff7d1b000 already mapped
build/X86/sim/process.cc:333: warn: Process::allocateMem: addr 0x7ffff7d1b000 already mapped
build/X86/sim/syscall_emul.cc:74: warn: ignoring syscall madvise(...)
build/X86/sim/syscall_emul.cc:74: warn: ignoring syscall madvise(...)
build/X86/sim/syscall_emul.cc:74: warn: ignoring syscall madvise(...)
build/X86/sim/syscall_emul.cc:74: warn: ignoring syscall madvise(...)
Success!
	Command being timed: "./build/X86/gem5.debug /home/gem5/gem5_new/configs/mytest2/hello.py -c 5 -b Threads"
	User time (seconds): 1706.07
	System time (seconds): 0.36
	Percent of CPU this job got: 99%
	Elapsed (wall clock) time (h:mm:ss or m:ss): 28:26.77
	Average shared text size (kbytes): 0
	Average unshared data size (kbytes): 0
	Average stack size (kbytes): 0
	Average total size (kbytes): 0
	Maximum resident set size (kbytes): 773252
	Average resident set size (kbytes): 0
	Major (requiring I/O) page faults: 0
	Minor (reclaiming a frame) page faults: 181799
	Voluntary context switches: 10
	Involuntary context switches: 20026
	Swaps: 0
	File system inputs: 0
	File system outputs: 3472
	Socket messages sent: 0
	Socket messages received: 0
	Signals delivered: 0
	Page size (bytes): 4096
	Exit status: 0
6
Global frequency set at 1000000000000 ticks per second
build/X86/mem/dram_interface.cc:690: warn: DRAM device capacity (8192 Mbytes) does not match the address range assigned (4096 Mbytes)
build/X86/base/statistics.hh:280: warn: One of the stats is a legacy stat. Legacy stat is a stat that does not belong to any statistics::Group. Legacy stat is deprecated.
0: board.remote_gdb: listening for remote gdb on port 7000
gem5 Simulator System.  https://www.gem5.org
gem5 is copyrighted software; use the --copyright option for details.

gem5 version 22.1.0.0
gem5 compiled Jun 11 2024 23:59:17
gem5 started Jun 14 2024 06:17:49
gem5 executing on gem5-VirtualBox, pid 187817
command line: ./build/X86/gem5.debug /home/gem5/gem5_new/configs/mytest2/hello.py -c 6 -b Threads

warn: The simulate package is still in a beta state. The gem5 project does not guarantee the APIs within this package will remain consistent across upcoming releases.
warn: No dot file generated. Please install pydot to generate the dot file and pdf.
build/X86/sim/simulate.cc:192: info: Entering event queue @ 0.  Starting simulation...
build/X86/mem/ruby/system/Sequencer.cc:613: warn: Replacement policy updates recently became the responsibility of SLICC state machines. Make sure to setMRU() near callbacks in .sm files!
build/X86/arch/x86/cpuid.cc:180: warn: x86 cpuid family 0x0000: unimplemented function 13
build/X86/sim/mem_state.cc:443: info: Increasing stack size by one page.
build/X86/sim/syscall_emul.cc:74: warn: ignoring syscall mprotect(...)
build/X86/sim/syscall_emul.cc:74: warn: ignoring syscall mprotect(...)
build/X86/sim/syscall_emul.cc:74: warn: ignoring syscall mprotect(...)
build/X86/sim/syscall_emul.cc:74: warn: ignoring syscall mprotect(...)
build/X86/sim/syscall_emul.cc:74: warn: ignoring syscall mprotect(...)
build/X86/sim/syscall_emul.cc:74: warn: ignoring syscall mprotect(...)
build/X86/sim/syscall_emul.cc:74: warn: ignoring syscall mprotect(...)
build/X86/sim/syscall_emul.cc:74: warn: ignoring syscall mprotect(...)
build/X86/sim/syscall_emul.cc:74: warn: ignoring syscall set_robust_list(...)
build/X86/sim/syscall_emul.cc:85: warn: ignoring syscall rt_sigaction(...)
      (further warnings will be suppressed)
build/X86/sim/syscall_emul.cc:85: warn: ignoring syscall rt_sigprocmask(...)
      (further warnings will be suppressed)
build/X86/sim/mem_state.cc:443: info: Increasing stack size by one page.
build/X86/arch/x86/generated/exec-ns.cc.inc:27: warn: instruction 'palignr_Vdq_Wdq_Ib' unimplemented
build/X86/arch/x86/generated/exec-ns.cc.inc:27: warn: instruction 'palignr_Vdq_Wdq_Ib' unimplemented
build/X86/arch/x86/generated/exec-ns.cc.inc:27: warn: instruction 'palignr_Vdq_Wdq_Ib' unimplemented
build/X86/arch/x86/generated/exec-ns.cc.inc:27: warn: instruction 'palignr_Vdq_Wdq_Ib' unimplemented
Running on 6 cores. with 409600 values
build/X86/sim/syscall_emul.cc:74: warn: ignoring syscall mprotect(...)
build/X86/sim/power_state.cc:105: warn: PowerState: Already in the requested power state, request ignored
build/X86/sim/syscall_emul.cc:74: warn: ignoring syscall set_robust_list(...)
build/X86/sim/syscall_emul.cc:74: warn: ignoring syscall mprotect(...)
build/X86/sim/syscall_emul.cc:74: warn: ignoring syscall set_robust_list(...)
build/X86/sim/syscall_emul.cc:74: warn: ignoring syscall mprotect(...)
build/X86/sim/syscall_emul.cc:74: warn: ignoring syscall set_robust_list(...)
build/X86/sim/syscall_emul.cc:74: warn: ignoring syscall mprotect(...)
build/X86/sim/syscall_emul.cc:74: warn: ignoring syscall set_robust_list(...)
build/X86/sim/syscall_emul.cc:74: warn: ignoring syscall mprotect(...)
build/X86/sim/syscall_emul.cc:74: warn: ignoring syscall set_robust_list(...)
Waiting for other threads to complete
build/X86/sim/process.cc:333: warn: Process::allocateMem: addr 0x7ffff7c6f000 already mapped
build/X86/sim/process.cc:333: warn: Process::allocateMem: addr 0x7ffff7c6f000 already mapped
build/X86/sim/process.cc:333: warn: Process::allocateMem: addr 0x7ffff7c6f000 already mapped
build/X86/sim/process.cc:333: warn: Process::allocateMem: addr 0x7ffff7c6f000 already mapped
build/X86/sim/syscall_emul.cc:74: warn: ignoring syscall mprotect(...)
build/X86/sim/syscall_emul.cc:74: warn: ignoring syscall mprotect(...)
build/X86/sim/syscall_emul.cc:74: warn: ignoring syscall mprotect(...)
build/X86/sim/syscall_emul.cc:74: warn: ignoring syscall mprotect(...)
build/X86/sim/syscall_emul.cc:74: warn: ignoring syscall mprotect(...)
build/X86/sim/process.cc:333: warn: Process::allocateMem: addr 0x7ffff7c70000 already mapped
build/X86/sim/process.cc:333: warn: Process::allocateMem: addr 0x7ffff7c70000 already mapped
build/X86/sim/process.cc:333: warn: Process::allocateMem: addr 0x7ffff7c70000 already mapped
build/X86/sim/process.cc:333: warn: Process::allocateMem: addr 0x7ffff7c70000 already mapped
build/X86/arch/x86/faults.cc:166: panic: Tried to read unmapped address 0x7ffff75d1a38.
PC: (0x7ffff801fa2e=>0x7ffff801fa2f).(0=>1), Instr:   RET_NEAR : ld   t1, SS:[t0 + rsp]
Memory Usage: 5024428 KBytes
Program aborted at tick 14458063000
--- BEGIN LIBC BACKTRACE ---
./build/X86/gem5.debug(+0x1188119)[0x55c8649a9119]
./build/X86/gem5.debug(+0x11ae6b4)[0x55c8649cf6b4]
/lib/x86_64-linux-gnu/libpthread.so.0(+0x14420)[0x7fc9331ee420]
/lib/x86_64-linux-gnu/libc.so.6(gsignal+0xcb)[0x7fc93275800b]
/lib/x86_64-linux-gnu/libc.so.6(abort+0x12b)[0x7fc932737859]
./build/X86/gem5.debug(+0x1eef94)[0x55c863a0ff94]
./build/X86/gem5.debug(+0x261f59)[0x55c863a82f59]
./build/X86/gem5.debug(+0x1364de7)[0x55c864b85de7]
./build/X86/gem5.debug(+0x1355dae)[0x55c864b76dae]
./build/X86/gem5.debug(+0x1354356)[0x55c864b75356]
./build/X86/gem5.debug(+0x1353a2e)[0x55c864b74a2e]
./build/X86/gem5.debug(+0x13520b1)[0x55c864b730b1]
./build/X86/gem5.debug(+0x1362ee6)[0x55c864b83ee6]
./build/X86/gem5.debug(+0x135fd15)[0x55c864b80d15]
./build/X86/gem5.debug(+0x136952c)[0x55c864b8a52c]
./build/X86/gem5.debug(+0x2812a0)[0x55c863aa22a0]
./build/X86/gem5.debug(+0x27e784)[0x55c863a9f784]
./build/X86/gem5.debug(+0x119c6c0)[0x55c8649bd6c0]
./build/X86/gem5.debug(+0x11c9305)[0x55c8649ea305]
./build/X86/gem5.debug(+0x11c8dbb)[0x55c8649e9dbb]
./build/X86/gem5.debug(+0x19643b0)[0x55c8651853b0]
./build/X86/gem5.debug(+0x1962a62)[0x55c865183a62]
./build/X86/gem5.debug(+0x195ec15)[0x55c86517fc15]
./build/X86/gem5.debug(+0x195ec80)[0x55c86517fc80]
./build/X86/gem5.debug(+0x202fe4)[0x55c863a23fe4]
/lib/x86_64-linux-gnu/libpython3.8.so.1.0(+0x2a8748)[0x7fc9334a7748]
/lib/x86_64-linux-gnu/libpython3.8.so.1.0(_PyEval_EvalFrameDefault+0x8dd8)[0x7fc93327cf48]
/lib/x86_64-linux-gnu/libpython3.8.so.1.0(_PyEval_EvalCodeWithName+0x8fb)[0x7fc9333c9e4b]
/lib/x86_64-linux-gnu/libpython3.8.so.1.0(_PyFunction_Vectorcall+0x94)[0x7fc9334a7124]
/lib/x86_64-linux-gnu/libpython3.8.so.1.0(+0x74d6d)[0x7fc933273d6d]
/lib/x86_64-linux-gnu/libpython3.8.so.1.0(_PyEval_EvalFrameDefault+0x7d86)[0x7fc93327bef6]
/lib/x86_64-linux-gnu/libpython3.8.so.1.0(_PyEval_EvalCodeWithName+0x8fb)[0x7fc9333c9e4b]
--- END LIBC BACKTRACE ---
Command terminated by signal 6
	Command being timed: "./build/X86/gem5.debug /home/gem5/gem5_new/configs/mytest2/hello.py -c 6 -b Threads"
	User time (seconds): 1321.74
	System time (seconds): 0.35
	Percent of CPU this job got: 99%
	Elapsed (wall clock) time (h:mm:ss or m:ss): 22:02.58
	Average shared text size (kbytes): 0
	Average unshared data size (kbytes): 0
	Average stack size (kbytes): 0
	Average total size (kbytes): 0
	Maximum resident set size (kbytes): 778688
	Average resident set size (kbytes): 0
	Major (requiring I/O) page faults: 0
	Minor (reclaiming a frame) page faults: 183239
	Voluntary context switches: 8
	Involuntary context switches: 12590
	Swaps: 0
	File system inputs: 0
	File system outputs: 2696
	Socket messages sent: 0
	Socket messages received: 0
	Signals delivered: 0
	Page size (bytes): 4096
	Exit status: 0
7
Global frequency set at 1000000000000 ticks per second
build/X86/mem/dram_interface.cc:690: warn: DRAM device capacity (8192 Mbytes) does not match the address range assigned (4096 Mbytes)
build/X86/base/statistics.hh:280: warn: One of the stats is a legacy stat. Legacy stat is a stat that does not belong to any statistics::Group. Legacy stat is deprecated.
0: board.remote_gdb: listening for remote gdb on port 7000
gem5 Simulator System.  https://www.gem5.org
gem5 is copyrighted software; use the --copyright option for details.

gem5 version 22.1.0.0
gem5 compiled Jun 11 2024 23:59:17
gem5 started Jun 14 2024 06:39:52
gem5 executing on gem5-VirtualBox, pid 187843
command line: ./build/X86/gem5.debug /home/gem5/gem5_new/configs/mytest2/hello.py -c 7 -b Threads

warn: The simulate package is still in a beta state. The gem5 project does not guarantee the APIs within this package will remain consistent across upcoming releases.
warn: No dot file generated. Please install pydot to generate the dot file and pdf.
build/X86/sim/simulate.cc:192: info: Entering event queue @ 0.  Starting simulation...
build/X86/mem/ruby/system/Sequencer.cc:613: warn: Replacement policy updates recently became the responsibility of SLICC state machines. Make sure to setMRU() near callbacks in .sm files!
build/X86/arch/x86/cpuid.cc:180: warn: x86 cpuid family 0x0000: unimplemented function 13
build/X86/sim/mem_state.cc:443: info: Increasing stack size by one page.
build/X86/sim/syscall_emul.cc:74: warn: ignoring syscall mprotect(...)
build/X86/sim/syscall_emul.cc:74: warn: ignoring syscall mprotect(...)
build/X86/sim/syscall_emul.cc:74: warn: ignoring syscall mprotect(...)
build/X86/sim/syscall_emul.cc:74: warn: ignoring syscall mprotect(...)
build/X86/sim/syscall_emul.cc:74: warn: ignoring syscall mprotect(...)
build/X86/sim/syscall_emul.cc:74: warn: ignoring syscall mprotect(...)
build/X86/sim/syscall_emul.cc:74: warn: ignoring syscall mprotect(...)
build/X86/sim/syscall_emul.cc:74: warn: ignoring syscall mprotect(...)
build/X86/sim/syscall_emul.cc:74: warn: ignoring syscall set_robust_list(...)
build/X86/sim/syscall_emul.cc:85: warn: ignoring syscall rt_sigaction(...)
      (further warnings will be suppressed)
build/X86/sim/syscall_emul.cc:85: warn: ignoring syscall rt_sigprocmask(...)
      (further warnings will be suppressed)
build/X86/sim/mem_state.cc:443: info: Increasing stack size by one page.
build/X86/arch/x86/generated/exec-ns.cc.inc:27: warn: instruction 'palignr_Vdq_Wdq_Ib' unimplemented
build/X86/arch/x86/generated/exec-ns.cc.inc:27: warn: instruction 'palignr_Vdq_Wdq_Ib' unimplemented
build/X86/arch/x86/generated/exec-ns.cc.inc:27: warn: instruction 'palignr_Vdq_Wdq_Ib' unimplemented
build/X86/arch/x86/generated/exec-ns.cc.inc:27: warn: instruction 'palignr_Vdq_Wdq_Ib' unimplemented
Running on 7 cores. with 409600 values
build/X86/sim/syscall_emul.cc:74: warn: ignoring syscall mprotect(...)
build/X86/sim/power_state.cc:105: warn: PowerState: Already in the requested power state, request ignored
build/X86/sim/syscall_emul.cc:74: warn: ignoring syscall set_robust_list(...)
build/X86/sim/syscall_emul.cc:74: warn: ignoring syscall mprotect(...)
build/X86/sim/syscall_emul.cc:74: warn: ignoring syscall set_robust_list(...)
build/X86/sim/syscall_emul.cc:74: warn: ignoring syscall mprotect(...)
build/X86/sim/syscall_emul.cc:74: warn: ignoring syscall set_robust_list(...)
build/X86/sim/syscall_emul.cc:74: warn: ignoring syscall mprotect(...)
build/X86/sim/syscall_emul.cc:74: warn: ignoring syscall set_robust_list(...)
build/X86/sim/syscall_emul.cc:74: warn: ignoring syscall mprotect(...)
build/X86/sim/syscall_emul.cc:74: warn: ignoring syscall set_robust_list(...)
build/X86/sim/syscall_emul.cc:74: warn: ignoring syscall mprotect(...)
build/X86/sim/syscall_emul.cc:74: warn: ignoring syscall set_robust_list(...)
Waiting for other threads to complete
build/X86/sim/process.cc:333: warn: Process::allocateMem: addr 0x7ffff7c6f000 already mapped
build/X86/sim/process.cc:333: warn: Process::allocateMem: addr 0x7ffff7c6f000 already mapped
build/X86/sim/process.cc:333: warn: Process::allocateMem: addr 0x7ffff7c6f000 already mapped
build/X86/sim/process.cc:333: warn: Process::allocateMem: addr 0x7ffff7c6f000 already mapped
build/X86/sim/process.cc:333: warn: Process::allocateMem: addr 0x7ffff7c6f000 already mapped
build/X86/sim/syscall_emul.cc:74: warn: ignoring syscall mprotect(...)
build/X86/sim/syscall_emul.cc:74: warn: ignoring syscall mprotect(...)
build/X86/sim/syscall_emul.cc:74: warn: ignoring syscall mprotect(...)
build/X86/sim/syscall_emul.cc:74: warn: ignoring syscall mprotect(...)
build/X86/sim/syscall_emul.cc:74: warn: ignoring syscall mprotect(...)
build/X86/sim/syscall_emul.cc:74: warn: ignoring syscall mprotect(...)
build/X86/sim/process.cc:333: warn: Process::allocateMem: addr 0x7ffff7c70000 already mapped
build/X86/sim/process.cc:333: warn: Process::allocateMem: addr 0x7ffff7c70000 already mapped
build/X86/sim/process.cc:333: warn: Process::allocateMem: addr 0x7ffff7c70000 already mapped
build/X86/sim/process.cc:333: warn: Process::allocateMem: addr 0x7ffff7c70000 already mapped
build/X86/sim/process.cc:333: warn: Process::allocateMem: addr 0x7ffff7c70000 already mapped
build/X86/sim/process.cc:333: warn: Process::allocateMem: addr 0x7ffff7d2d000 already mapped
build/X86/sim/process.cc:333: warn: Process::allocateMem: addr 0x7ffff7d2d000 already mapped
build/X86/sim/process.cc:333: warn: Process::allocateMem: addr 0x7ffff7d2d000 already mapped
build/X86/sim/process.cc:333: warn: Process::allocateMem: addr 0x7ffff7d2d000 already mapped
build/X86/sim/process.cc:333: warn: Process::allocateMem: addr 0x7ffff7d2d000 already mapped
build/X86/arch/x86/faults.cc:166: panic: Tried to write unmapped address 0x7ffff75d1ee0.
PC: (0x7ffff7d2d3b4=>0x7ffff7d2d3b5).(0=>1), Instr:   PUSH_R : st   rbp, SS:[t0 + rsp + 0xfffffffffffffff8]
Memory Usage: 5043892 KBytes
Program aborted at tick 14426167000
--- BEGIN LIBC BACKTRACE ---
./build/X86/gem5.debug(+0x1188119)[0x561f95311119]
./build/X86/gem5.debug(+0x11ae6b4)[0x561f953376b4]
/lib/x86_64-linux-gnu/libpthread.so.0(+0x14420)[0x7f984fa40420]
/lib/x86_64-linux-gnu/libc.so.6(gsignal+0xcb)[0x7f984efaa00b]
/lib/x86_64-linux-gnu/libc.so.6(abort+0x12b)[0x7f984ef89859]
./build/X86/gem5.debug(+0x1eef94)[0x561f94377f94]
./build/X86/gem5.debug(+0x261f59)[0x561f943eaf59]
./build/X86/gem5.debug(+0x1364de7)[0x561f954edde7]
./build/X86/gem5.debug(+0x1355dae)[0x561f954dedae]
./build/X86/gem5.debug(+0x1354356)[0x561f954dd356]
./build/X86/gem5.debug(+0x1353a2e)[0x561f954dca2e]
./build/X86/gem5.debug(+0x13520b1)[0x561f954db0b1]
./build/X86/gem5.debug(+0x1362ee6)[0x561f954ebee6]
./build/X86/gem5.debug(+0x135fd15)[0x561f954e8d15]
./build/X86/gem5.debug(+0x136952c)[0x561f954f252c]
./build/X86/gem5.debug(+0x2812a0)[0x561f9440a2a0]
./build/X86/gem5.debug(+0x27e784)[0x561f94407784]
./build/X86/gem5.debug(+0x119c6c0)[0x561f953256c0]
./build/X86/gem5.debug(+0x11c9305)[0x561f95352305]
./build/X86/gem5.debug(+0x11c8dbb)[0x561f95351dbb]
./build/X86/gem5.debug(+0x19643b0)[0x561f95aed3b0]
./build/X86/gem5.debug(+0x1962a62)[0x561f95aeba62]
./build/X86/gem5.debug(+0x195ec15)[0x561f95ae7c15]
./build/X86/gem5.debug(+0x195ec80)[0x561f95ae7c80]
./build/X86/gem5.debug(+0x202fe4)[0x561f9438bfe4]
/lib/x86_64-linux-gnu/libpython3.8.so.1.0(+0x2a8748)[0x7f984fcf9748]
/lib/x86_64-linux-gnu/libpython3.8.so.1.0(_PyEval_EvalFrameDefault+0x8dd8)[0x7f984facef48]
/lib/x86_64-linux-gnu/libpython3.8.so.1.0(_PyEval_EvalCodeWithName+0x8fb)[0x7f984fc1be4b]
/lib/x86_64-linux-gnu/libpython3.8.so.1.0(_PyFunction_Vectorcall+0x94)[0x7f984fcf9124]
/lib/x86_64-linux-gnu/libpython3.8.so.1.0(+0x74d6d)[0x7f984fac5d6d]
/lib/x86_64-linux-gnu/libpython3.8.so.1.0(_PyEval_EvalFrameDefault+0x7d86)[0x7f984facdef6]
/lib/x86_64-linux-gnu/libpython3.8.so.1.0(_PyEval_EvalCodeWithName+0x8fb)[0x7f984fc1be4b]
--- END LIBC BACKTRACE ---
Command terminated by signal 6
	Command being timed: "./build/X86/gem5.debug /home/gem5/gem5_new/configs/mytest2/hello.py -c 7 -b Threads"
	User time (seconds): 1381.35
	System time (seconds): 0.35
	Percent of CPU this job got: 99%
	Elapsed (wall clock) time (h:mm:ss or m:ss): 23:02.04
	Average shared text size (kbytes): 0
	Average unshared data size (kbytes): 0
	Average stack size (kbytes): 0
	Average total size (kbytes): 0
	Maximum resident set size (kbytes): 796180
	Average resident set size (kbytes): 0
	Major (requiring I/O) page faults: 0
	Minor (reclaiming a frame) page faults: 187484
	Voluntary context switches: 9
	Involuntary context switches: 11297
	Swaps: 0
	File system inputs: 0
	File system outputs: 3272
	Socket messages sent: 0
	Socket messages received: 0
	Signals delivered: 0
	Page size (bytes): 4096
	Exit status: 0
8
Global frequency set at 1000000000000 ticks per second
build/X86/mem/dram_interface.cc:690: warn: DRAM device capacity (8192 Mbytes) does not match the address range assigned (4096 Mbytes)
build/X86/base/statistics.hh:280: warn: One of the stats is a legacy stat. Legacy stat is a stat that does not belong to any statistics::Group. Legacy stat is deprecated.
0: board.remote_gdb: listening for remote gdb on port 7000
gem5 Simulator System.  https://www.gem5.org
gem5 is copyrighted software; use the --copyright option for details.

gem5 version 22.1.0.0
gem5 compiled Jun 11 2024 23:59:17
gem5 started Jun 14 2024 07:02:54
gem5 executing on gem5-VirtualBox, pid 188465
command line: ./build/X86/gem5.debug /home/gem5/gem5_new/configs/mytest2/hello.py -c 8 -b Threads

warn: The simulate package is still in a beta state. The gem5 project does not guarantee the APIs within this package will remain consistent across upcoming releases.
warn: No dot file generated. Please install pydot to generate the dot file and pdf.
build/X86/sim/simulate.cc:192: info: Entering event queue @ 0.  Starting simulation...
build/X86/mem/ruby/system/Sequencer.cc:613: warn: Replacement policy updates recently became the responsibility of SLICC state machines. Make sure to setMRU() near callbacks in .sm files!
build/X86/arch/x86/cpuid.cc:180: warn: x86 cpuid family 0x0000: unimplemented function 13
build/X86/sim/mem_state.cc:443: info: Increasing stack size by one page.
build/X86/sim/syscall_emul.cc:74: warn: ignoring syscall mprotect(...)
build/X86/sim/syscall_emul.cc:74: warn: ignoring syscall mprotect(...)
build/X86/sim/syscall_emul.cc:74: warn: ignoring syscall mprotect(...)
build/X86/sim/syscall_emul.cc:74: warn: ignoring syscall mprotect(...)
build/X86/sim/syscall_emul.cc:74: warn: ignoring syscall mprotect(...)
build/X86/sim/syscall_emul.cc:74: warn: ignoring syscall mprotect(...)
build/X86/sim/syscall_emul.cc:74: warn: ignoring syscall mprotect(...)
build/X86/sim/syscall_emul.cc:74: warn: ignoring syscall mprotect(...)
build/X86/sim/syscall_emul.cc:74: warn: ignoring syscall set_robust_list(...)
build/X86/sim/syscall_emul.cc:85: warn: ignoring syscall rt_sigaction(...)
      (further warnings will be suppressed)
build/X86/sim/syscall_emul.cc:85: warn: ignoring syscall rt_sigprocmask(...)
      (further warnings will be suppressed)
build/X86/sim/mem_state.cc:443: info: Increasing stack size by one page.
build/X86/arch/x86/generated/exec-ns.cc.inc:27: warn: instruction 'palignr_Vdq_Wdq_Ib' unimplemented
build/X86/arch/x86/generated/exec-ns.cc.inc:27: warn: instruction 'palignr_Vdq_Wdq_Ib' unimplemented
build/X86/arch/x86/generated/exec-ns.cc.inc:27: warn: instruction 'palignr_Vdq_Wdq_Ib' unimplemented
build/X86/arch/x86/generated/exec-ns.cc.inc:27: warn: instruction 'palignr_Vdq_Wdq_Ib' unimplemented
Running on 8 cores. with 409600 values
build/X86/sim/syscall_emul.cc:74: warn: ignoring syscall mprotect(...)
build/X86/sim/power_state.cc:105: warn: PowerState: Already in the requested power state, request ignored
build/X86/sim/syscall_emul.cc:74: warn: ignoring syscall set_robust_list(...)
build/X86/sim/syscall_emul.cc:74: warn: ignoring syscall mprotect(...)
build/X86/sim/syscall_emul.cc:74: warn: ignoring syscall set_robust_list(...)
build/X86/sim/syscall_emul.cc:74: warn: ignoring syscall mprotect(...)
build/X86/sim/syscall_emul.cc:74: warn: ignoring syscall set_robust_list(...)
build/X86/sim/syscall_emul.cc:74: warn: ignoring syscall mprotect(...)
build/X86/sim/syscall_emul.cc:74: warn: ignoring syscall set_robust_list(...)
build/X86/sim/syscall_emul.cc:74: warn: ignoring syscall mprotect(...)
build/X86/sim/syscall_emul.cc:74: warn: ignoring syscall set_robust_list(...)
build/X86/sim/syscall_emul.cc:74: warn: ignoring syscall mprotect(...)
build/X86/sim/syscall_emul.cc:74: warn: ignoring syscall set_robust_list(...)
build/X86/sim/syscall_emul.cc:74: warn: ignoring syscall mprotect(...)
build/X86/sim/syscall_emul.cc:74: warn: ignoring syscall set_robust_list(...)
Waiting for other threads to complete
build/X86/sim/process.cc:333: warn: Process::allocateMem: addr 0x7ffff7c6f000 already mapped
build/X86/sim/process.cc:333: warn: Process::allocateMem: addr 0x7ffff7c6f000 already mapped
build/X86/sim/process.cc:333: warn: Process::allocateMem: addr 0x7ffff7c6f000 already mapped
build/X86/sim/process.cc:333: warn: Process::allocateMem: addr 0x7ffff7c6f000 already mapped
build/X86/sim/process.cc:333: warn: Process::allocateMem: addr 0x7ffff7c6f000 already mapped
build/X86/sim/process.cc:333: warn: Process::allocateMem: addr 0x7ffff7c6f000 already mapped
build/X86/sim/syscall_emul.cc:74: warn: ignoring syscall mprotect(...)
build/X86/sim/syscall_emul.cc:74: warn: ignoring syscall mprotect(...)
build/X86/sim/syscall_emul.cc:74: warn: ignoring syscall mprotect(...)
build/X86/sim/syscall_emul.cc:74: warn: ignoring syscall mprotect(...)
build/X86/sim/syscall_emul.cc:74: warn: ignoring syscall mprotect(...)
build/X86/sim/syscall_emul.cc:74: warn: ignoring syscall mprotect(...)
build/X86/sim/syscall_emul.cc:74: warn: ignoring syscall mprotect(...)
build/X86/sim/process.cc:333: warn: Process::allocateMem: addr 0x7ffff7c70000 already mapped
build/X86/sim/process.cc:333: warn: Process::allocateMem: addr 0x7ffff7c70000 already mapped
build/X86/sim/process.cc:333: warn: Process::allocateMem: addr 0x7ffff7c70000 already mapped
build/X86/sim/process.cc:333: warn: Process::allocateMem: addr 0x7ffff7c70000 already mapped
build/X86/sim/process.cc:333: warn: Process::allocateMem: addr 0x7ffff7c70000 already mapped
build/X86/sim/process.cc:333: warn: Process::allocateMem: addr 0x7ffff7c70000 already mapped
build/X86/arch/x86/faults.cc:166: panic: Tried to read unmapped address 0x7ffff75d1c70.
PC: (0x7ffff80101a2=>0x7ffff80101a3).(0=>1), Instr:   POP_R : ld   t1, SS:[t0 + rsp]
Memory Usage: 5058236 KBytes
Program aborted at tick 14415790000
--- BEGIN LIBC BACKTRACE ---
./build/X86/gem5.debug(+0x1188119)[0x55bbc010f119]
./build/X86/gem5.debug(+0x11ae6b4)[0x55bbc01356b4]
/lib/x86_64-linux-gnu/libpthread.so.0(+0x14420)[0x7f5aeb638420]
/lib/x86_64-linux-gnu/libc.so.6(gsignal+0xcb)[0x7f5aeaba200b]
/lib/x86_64-linux-gnu/libc.so.6(abort+0x12b)[0x7f5aeab81859]
./build/X86/gem5.debug(+0x1eef94)[0x55bbbf175f94]
./build/X86/gem5.debug(+0x261f59)[0x55bbbf1e8f59]
./build/X86/gem5.debug(+0x1364de7)[0x55bbc02ebde7]
./build/X86/gem5.debug(+0x1355dae)[0x55bbc02dcdae]
./build/X86/gem5.debug(+0x1354356)[0x55bbc02db356]
./build/X86/gem5.debug(+0x1353a2e)[0x55bbc02daa2e]
./build/X86/gem5.debug(+0x13520b1)[0x55bbc02d90b1]
./build/X86/gem5.debug(+0x1362ee6)[0x55bbc02e9ee6]
./build/X86/gem5.debug(+0x135fd15)[0x55bbc02e6d15]
./build/X86/gem5.debug(+0x136952c)[0x55bbc02f052c]
./build/X86/gem5.debug(+0x2812a0)[0x55bbbf2082a0]
./build/X86/gem5.debug(+0x27e784)[0x55bbbf205784]
./build/X86/gem5.debug(+0x119c6c0)[0x55bbc01236c0]
./build/X86/gem5.debug(+0x11c9305)[0x55bbc0150305]
./build/X86/gem5.debug(+0x11c8dbb)[0x55bbc014fdbb]
./build/X86/gem5.debug(+0x19643b0)[0x55bbc08eb3b0]
./build/X86/gem5.debug(+0x1962a62)[0x55bbc08e9a62]
./build/X86/gem5.debug(+0x195ec15)[0x55bbc08e5c15]
./build/X86/gem5.debug(+0x195ec80)[0x55bbc08e5c80]
./build/X86/gem5.debug(+0x202fe4)[0x55bbbf189fe4]
/lib/x86_64-linux-gnu/libpython3.8.so.1.0(+0x2a8748)[0x7f5aeb8f1748]
/lib/x86_64-linux-gnu/libpython3.8.so.1.0(_PyEval_EvalFrameDefault+0x8dd8)[0x7f5aeb6c6f48]
/lib/x86_64-linux-gnu/libpython3.8.so.1.0(_PyEval_EvalCodeWithName+0x8fb)[0x7f5aeb813e4b]
/lib/x86_64-linux-gnu/libpython3.8.so.1.0(_PyFunction_Vectorcall+0x94)[0x7f5aeb8f1124]
/lib/x86_64-linux-gnu/libpython3.8.so.1.0(+0x74d6d)[0x7f5aeb6bdd6d]
/lib/x86_64-linux-gnu/libpython3.8.so.1.0(_PyEval_EvalFrameDefault+0x7d86)[0x7f5aeb6c5ef6]
/lib/x86_64-linux-gnu/libpython3.8.so.1.0(_PyEval_EvalCodeWithName+0x8fb)[0x7f5aeb813e4b]
--- END LIBC BACKTRACE ---
Command terminated by signal 6
	Command being timed: "./build/X86/gem5.debug /home/gem5/gem5_new/configs/mytest2/hello.py -c 8 -b Threads"
	User time (seconds): 1418.04
	System time (seconds): 0.34
	Percent of CPU this job got: 99%
	Elapsed (wall clock) time (h:mm:ss or m:ss): 23:38.66
	Average shared text size (kbytes): 0
	Average unshared data size (kbytes): 0
	Average stack size (kbytes): 0
	Average total size (kbytes): 0
	Maximum resident set size (kbytes): 810892
	Average resident set size (kbytes): 0
	Major (requiring I/O) page faults: 0
	Minor (reclaiming a frame) page faults: 191266
	Voluntary context switches: 7
	Involuntary context switches: 9221
	Swaps: 0
	File system inputs: 0
	File system outputs: 3888
	Socket messages sent: 0
	Socket messages received: 0
	Signals delivered: 0
	Page size (bytes): 4096
	Exit status: 0
9
Global frequency set at 1000000000000 ticks per second
build/X86/mem/dram_interface.cc:690: warn: DRAM device capacity (8192 Mbytes) does not match the address range assigned (4096 Mbytes)
build/X86/base/statistics.hh:280: warn: One of the stats is a legacy stat. Legacy stat is a stat that does not belong to any statistics::Group. Legacy stat is deprecated.
0: board.remote_gdb: listening for remote gdb on port 7000
gem5 Simulator System.  https://www.gem5.org
gem5 is copyrighted software; use the --copyright option for details.

gem5 version 22.1.0.0
gem5 compiled Jun 11 2024 23:59:17
gem5 started Jun 14 2024 07:26:33
gem5 executing on gem5-VirtualBox, pid 188481
command line: ./build/X86/gem5.debug /home/gem5/gem5_new/configs/mytest2/hello.py -c 9 -b Threads

warn: The simulate package is still in a beta state. The gem5 project does not guarantee the APIs within this package will remain consistent across upcoming releases.
warn: No dot file generated. Please install pydot to generate the dot file and pdf.
build/X86/sim/simulate.cc:192: info: Entering event queue @ 0.  Starting simulation...
build/X86/mem/ruby/system/Sequencer.cc:613: warn: Replacement policy updates recently became the responsibility of SLICC state machines. Make sure to setMRU() near callbacks in .sm files!
build/X86/arch/x86/cpuid.cc:180: warn: x86 cpuid family 0x0000: unimplemented function 13
build/X86/sim/mem_state.cc:443: info: Increasing stack size by one page.
build/X86/sim/syscall_emul.cc:74: warn: ignoring syscall mprotect(...)
build/X86/sim/syscall_emul.cc:74: warn: ignoring syscall mprotect(...)
build/X86/sim/syscall_emul.cc:74: warn: ignoring syscall mprotect(...)
build/X86/sim/syscall_emul.cc:74: warn: ignoring syscall mprotect(...)
build/X86/sim/syscall_emul.cc:74: warn: ignoring syscall mprotect(...)
build/X86/sim/syscall_emul.cc:74: warn: ignoring syscall mprotect(...)
build/X86/sim/syscall_emul.cc:74: warn: ignoring syscall mprotect(...)
build/X86/sim/syscall_emul.cc:74: warn: ignoring syscall mprotect(...)
build/X86/sim/syscall_emul.cc:74: warn: ignoring syscall set_robust_list(...)
build/X86/sim/syscall_emul.cc:85: warn: ignoring syscall rt_sigaction(...)
      (further warnings will be suppressed)
build/X86/sim/syscall_emul.cc:85: warn: ignoring syscall rt_sigprocmask(...)
      (further warnings will be suppressed)
build/X86/sim/mem_state.cc:443: info: Increasing stack size by one page.
build/X86/arch/x86/generated/exec-ns.cc.inc:27: warn: instruction 'palignr_Vdq_Wdq_Ib' unimplemented
build/X86/arch/x86/generated/exec-ns.cc.inc:27: warn: instruction 'palignr_Vdq_Wdq_Ib' unimplemented
build/X86/arch/x86/generated/exec-ns.cc.inc:27: warn: instruction 'palignr_Vdq_Wdq_Ib' unimplemented
build/X86/arch/x86/generated/exec-ns.cc.inc:27: warn: instruction 'palignr_Vdq_Wdq_Ib' unimplemented
Running on 9 cores. with 409600 values
build/X86/sim/syscall_emul.cc:74: warn: ignoring syscall mprotect(...)
build/X86/sim/power_state.cc:105: warn: PowerState: Already in the requested power state, request ignored
build/X86/sim/syscall_emul.cc:74: warn: ignoring syscall set_robust_list(...)
build/X86/sim/syscall_emul.cc:74: warn: ignoring syscall mprotect(...)
build/X86/sim/syscall_emul.cc:74: warn: ignoring syscall set_robust_list(...)
build/X86/sim/syscall_emul.cc:74: warn: ignoring syscall mprotect(...)
build/X86/sim/syscall_emul.cc:74: warn: ignoring syscall set_robust_list(...)
build/X86/sim/syscall_emul.cc:74: warn: ignoring syscall mprotect(...)
build/X86/sim/syscall_emul.cc:74: warn: ignoring syscall set_robust_list(...)
build/X86/sim/syscall_emul.cc:74: warn: ignoring syscall mprotect(...)
build/X86/sim/syscall_emul.cc:74: warn: ignoring syscall set_robust_list(...)
build/X86/sim/syscall_emul.cc:74: warn: ignoring syscall mprotect(...)
build/X86/sim/syscall_emul.cc:74: warn: ignoring syscall set_robust_list(...)
build/X86/sim/syscall_emul.cc:74: warn: ignoring syscall mprotect(...)
build/X86/sim/syscall_emul.cc:74: warn: ignoring syscall set_robust_list(...)
build/X86/sim/syscall_emul.cc:74: warn: ignoring syscall mprotect(...)
build/X86/sim/syscall_emul.cc:74: warn: ignoring syscall set_robust_list(...)
Waiting for other threads to complete
build/X86/sim/process.cc:333: warn: Process::allocateMem: addr 0x7ffff7c6f000 already mapped
build/X86/sim/process.cc:333: warn: Process::allocateMem: addr 0x7ffff7c6f000 already mapped
build/X86/sim/process.cc:333: warn: Process::allocateMem: addr 0x7ffff7c6f000 already mapped
build/X86/sim/process.cc:333: warn: Process::allocateMem: addr 0x7ffff7c6f000 already mapped
build/X86/sim/process.cc:333: warn: Process::allocateMem: addr 0x7ffff7c6f000 already mapped
build/X86/sim/process.cc:333: warn: Process::allocateMem: addr 0x7ffff7c6f000 already mapped
build/X86/sim/process.cc:333: warn: Process::allocateMem: addr 0x7ffff7c6f000 already mapped
build/X86/sim/syscall_emul.cc:74: warn: ignoring syscall mprotect(...)
build/X86/sim/syscall_emul.cc:74: warn: ignoring syscall mprotect(...)
build/X86/sim/syscall_emul.cc:74: warn: ignoring syscall mprotect(...)
build/X86/sim/syscall_emul.cc:74: warn: ignoring syscall mprotect(...)
build/X86/sim/syscall_emul.cc:74: warn: ignoring syscall mprotect(...)
build/X86/sim/syscall_emul.cc:74: warn: ignoring syscall mprotect(...)
build/X86/sim/syscall_emul.cc:74: warn: ignoring syscall mprotect(...)
build/X86/sim/syscall_emul.cc:74: warn: ignoring syscall mprotect(...)
build/X86/sim/process.cc:333: warn: Process::allocateMem: addr 0x7ffff7c70000 already mapped
build/X86/sim/process.cc:333: warn: Process::allocateMem: addr 0x7ffff7c70000 already mapped
build/X86/sim/process.cc:333: warn: Process::allocateMem: addr 0x7ffff7c70000 already mapped
build/X86/sim/process.cc:333: warn: Process::allocateMem: addr 0x7ffff7c70000 already mapped
build/X86/sim/process.cc:333: warn: Process::allocateMem: addr 0x7ffff7c70000 already mapped
build/X86/sim/process.cc:333: warn: Process::allocateMem: addr 0x7ffff7c70000 already mapped
build/X86/sim/process.cc:333: warn: Process::allocateMem: addr 0x7ffff7c70000 already mapped
build/X86/arch/x86/faults.cc:166: panic: Tried to read unmapped address 0x7ffff75d1a38.
PC: (0x7ffff801fa2e=>0x7ffff801fa2f).(0=>1), Instr:   RET_NEAR : ld   t1, SS:[t0 + rsp]
Memory Usage: 5074632 KBytes
Program aborted at tick 14362318000
--- BEGIN LIBC BACKTRACE ---
./build/X86/gem5.debug(+0x1188119)[0x55f17e0f8119]
./build/X86/gem5.debug(+0x11ae6b4)[0x55f17e11e6b4]
/lib/x86_64-linux-gnu/libpthread.so.0(+0x14420)[0x7fc67e4fe420]
/lib/x86_64-linux-gnu/libc.so.6(gsignal+0xcb)[0x7fc67da6800b]
/lib/x86_64-linux-gnu/libc.so.6(abort+0x12b)[0x7fc67da47859]
./build/X86/gem5.debug(+0x1eef94)[0x55f17d15ef94]
./build/X86/gem5.debug(+0x261f59)[0x55f17d1d1f59]
./build/X86/gem5.debug(+0x1364de7)[0x55f17e2d4de7]
./build/X86/gem5.debug(+0x1355dae)[0x55f17e2c5dae]
./build/X86/gem5.debug(+0x1354356)[0x55f17e2c4356]
./build/X86/gem5.debug(+0x1353a2e)[0x55f17e2c3a2e]
./build/X86/gem5.debug(+0x13520b1)[0x55f17e2c20b1]
./build/X86/gem5.debug(+0x1362ee6)[0x55f17e2d2ee6]
./build/X86/gem5.debug(+0x135fd15)[0x55f17e2cfd15]
./build/X86/gem5.debug(+0x136952c)[0x55f17e2d952c]
./build/X86/gem5.debug(+0x2812a0)[0x55f17d1f12a0]
./build/X86/gem5.debug(+0x27e784)[0x55f17d1ee784]
./build/X86/gem5.debug(+0x119c6c0)[0x55f17e10c6c0]
./build/X86/gem5.debug(+0x11c9305)[0x55f17e139305]
./build/X86/gem5.debug(+0x11c8dbb)[0x55f17e138dbb]
./build/X86/gem5.debug(+0x19643b0)[0x55f17e8d43b0]
./build/X86/gem5.debug(+0x1962a62)[0x55f17e8d2a62]
./build/X86/gem5.debug(+0x195ec15)[0x55f17e8cec15]
./build/X86/gem5.debug(+0x195ec80)[0x55f17e8cec80]
./build/X86/gem5.debug(+0x202fe4)[0x55f17d172fe4]
/lib/x86_64-linux-gnu/libpython3.8.so.1.0(+0x2a8748)[0x7fc67e7b7748]
/lib/x86_64-linux-gnu/libpython3.8.so.1.0(_PyEval_EvalFrameDefault+0x8dd8)[0x7fc67e58cf48]
/lib/x86_64-linux-gnu/libpython3.8.so.1.0(_PyEval_EvalCodeWithName+0x8fb)[0x7fc67e6d9e4b]
/lib/x86_64-linux-gnu/libpython3.8.so.1.0(_PyFunction_Vectorcall+0x94)[0x7fc67e7b7124]
/lib/x86_64-linux-gnu/libpython3.8.so.1.0(+0x74d6d)[0x7fc67e583d6d]
/lib/x86_64-linux-gnu/libpython3.8.so.1.0(_PyEval_EvalFrameDefault+0x7d86)[0x7fc67e58bef6]
/lib/x86_64-linux-gnu/libpython3.8.so.1.0(_PyEval_EvalCodeWithName+0x8fb)[0x7fc67e6d9e4b]
--- END LIBC BACKTRACE ---
Command terminated by signal 6
	Command being timed: "./build/X86/gem5.debug /home/gem5/gem5_new/configs/mytest2/hello.py -c 9 -b Threads"
	User time (seconds): 1433.64
	System time (seconds): 0.56
	Percent of CPU this job got: 99%
	Elapsed (wall clock) time (h:mm:ss or m:ss): 23:54.69
	Average shared text size (kbytes): 0
	Average unshared data size (kbytes): 0
	Average stack size (kbytes): 0
	Average total size (kbytes): 0
	Maximum resident set size (kbytes): 826504
	Average resident set size (kbytes): 0
	Major (requiring I/O) page faults: 0
	Minor (reclaiming a frame) page faults: 195838
	Voluntary context switches: 7
	Involuntary context switches: 14815
	Swaps: 0
	File system inputs: 0
	File system outputs: 4576
	Socket messages sent: 0
	Socket messages received: 0
	Signals delivered: 0
	Page size (bytes): 4096
	Exit status: 0
10
Global frequency set at 1000000000000 ticks per second
build/X86/mem/dram_interface.cc:690: warn: DRAM device capacity (8192 Mbytes) does not match the address range assigned (4096 Mbytes)
build/X86/base/statistics.hh:280: warn: One of the stats is a legacy stat. Legacy stat is a stat that does not belong to any statistics::Group. Legacy stat is deprecated.
0: board.remote_gdb: listening for remote gdb on port 7000
gem5 Simulator System.  https://www.gem5.org
gem5 is copyrighted software; use the --copyright option for details.

gem5 version 22.1.0.0
gem5 compiled Jun 11 2024 23:59:17
gem5 started Jun 14 2024 07:50:27
gem5 executing on gem5-VirtualBox, pid 188588
command line: ./build/X86/gem5.debug /home/gem5/gem5_new/configs/mytest2/hello.py -c 10 -b Threads

warn: The simulate package is still in a beta state. The gem5 project does not guarantee the APIs within this package will remain consistent across upcoming releases.
warn: No dot file generated. Please install pydot to generate the dot file and pdf.
build/X86/sim/simulate.cc:192: info: Entering event queue @ 0.  Starting simulation...
build/X86/mem/ruby/system/Sequencer.cc:613: warn: Replacement policy updates recently became the responsibility of SLICC state machines. Make sure to setMRU() near callbacks in .sm files!
build/X86/arch/x86/cpuid.cc:180: warn: x86 cpuid family 0x0000: unimplemented function 13
build/X86/sim/mem_state.cc:443: info: Increasing stack size by one page.
build/X86/sim/syscall_emul.cc:74: warn: ignoring syscall mprotect(...)
build/X86/sim/syscall_emul.cc:74: warn: ignoring syscall mprotect(...)
build/X86/sim/syscall_emul.cc:74: warn: ignoring syscall mprotect(...)
build/X86/sim/syscall_emul.cc:74: warn: ignoring syscall mprotect(...)
build/X86/sim/syscall_emul.cc:74: warn: ignoring syscall mprotect(...)
build/X86/sim/syscall_emul.cc:74: warn: ignoring syscall mprotect(...)
build/X86/sim/syscall_emul.cc:74: warn: ignoring syscall mprotect(...)
build/X86/sim/syscall_emul.cc:74: warn: ignoring syscall mprotect(...)
build/X86/sim/syscall_emul.cc:74: warn: ignoring syscall set_robust_list(...)
build/X86/sim/syscall_emul.cc:85: warn: ignoring syscall rt_sigaction(...)
      (further warnings will be suppressed)
build/X86/sim/syscall_emul.cc:85: warn: ignoring syscall rt_sigprocmask(...)
      (further warnings will be suppressed)
build/X86/sim/mem_state.cc:443: info: Increasing stack size by one page.
build/X86/arch/x86/generated/exec-ns.cc.inc:27: warn: instruction 'palignr_Vdq_Wdq_Ib' unimplemented
build/X86/arch/x86/generated/exec-ns.cc.inc:27: warn: instruction 'palignr_Vdq_Wdq_Ib' unimplemented
build/X86/arch/x86/generated/exec-ns.cc.inc:27: warn: instruction 'palignr_Vdq_Wdq_Ib' unimplemented
build/X86/arch/x86/generated/exec-ns.cc.inc:27: warn: instruction 'palignr_Vdq_Wdq_Ib' unimplemented
Running on 10 cores. with 409600 values
build/X86/sim/syscall_emul.cc:74: warn: ignoring syscall mprotect(...)
build/X86/sim/power_state.cc:105: warn: PowerState: Already in the requested power state, request ignored
build/X86/sim/syscall_emul.cc:74: warn: ignoring syscall set_robust_list(...)
build/X86/sim/syscall_emul.cc:74: warn: ignoring syscall mprotect(...)
build/X86/sim/syscall_emul.cc:74: warn: ignoring syscall set_robust_list(...)
build/X86/sim/syscall_emul.cc:74: warn: ignoring syscall mprotect(...)
build/X86/sim/syscall_emul.cc:74: warn: ignoring syscall set_robust_list(...)
build/X86/sim/syscall_emul.cc:74: warn: ignoring syscall mprotect(...)
build/X86/sim/syscall_emul.cc:74: warn: ignoring syscall set_robust_list(...)
build/X86/sim/syscall_emul.cc:74: warn: ignoring syscall mprotect(...)
build/X86/sim/syscall_emul.cc:74: warn: ignoring syscall set_robust_list(...)
build/X86/sim/syscall_emul.cc:74: warn: ignoring syscall mprotect(...)
build/X86/sim/syscall_emul.cc:74: warn: ignoring syscall set_robust_list(...)
build/X86/sim/syscall_emul.cc:74: warn: ignoring syscall mprotect(...)
build/X86/sim/syscall_emul.cc:74: warn: ignoring syscall set_robust_list(...)
build/X86/sim/syscall_emul.cc:74: warn: ignoring syscall mprotect(...)
build/X86/sim/syscall_emul.cc:74: warn: ignoring syscall set_robust_list(...)
build/X86/sim/syscall_emul.cc:74: warn: ignoring syscall mprotect(...)
build/X86/sim/syscall_emul.cc:74: warn: ignoring syscall set_robust_list(...)
Waiting for other threads to complete
build/X86/sim/process.cc:333: warn: Process::allocateMem: addr 0x7ffff7c6f000 already mapped
build/X86/sim/process.cc:333: warn: Process::allocateMem: addr 0x7ffff7c6f000 already mapped
build/X86/sim/process.cc:333: warn: Process::allocateMem: addr 0x7ffff7c6f000 already mapped
build/X86/sim/process.cc:333: warn: Process::allocateMem: addr 0x7ffff7c6f000 already mapped
build/X86/sim/process.cc:333: warn: Process::allocateMem: addr 0x7ffff7c6f000 already mapped
build/X86/sim/process.cc:333: warn: Process::allocateMem: addr 0x7ffff7c6f000 already mapped
build/X86/sim/process.cc:333: warn: Process::allocateMem: addr 0x7ffff7c6f000 already mapped
build/X86/sim/process.cc:333: warn: Process::allocateMem: addr 0x7ffff7c6f000 already mapped
build/X86/sim/syscall_emul.cc:74: warn: ignoring syscall mprotect(...)
build/X86/sim/syscall_emul.cc:74: warn: ignoring syscall mprotect(...)
build/X86/sim/syscall_emul.cc:74: warn: ignoring syscall mprotect(...)
build/X86/sim/syscall_emul.cc:74: warn: ignoring syscall mprotect(...)
build/X86/sim/syscall_emul.cc:74: warn: ignoring syscall mprotect(...)
build/X86/sim/syscall_emul.cc:74: warn: ignoring syscall mprotect(...)
build/X86/sim/syscall_emul.cc:74: warn: ignoring syscall mprotect(...)
build/X86/sim/syscall_emul.cc:74: warn: ignoring syscall mprotect(...)
build/X86/sim/syscall_emul.cc:74: warn: ignoring syscall mprotect(...)
build/X86/sim/process.cc:333: warn: Process::allocateMem: addr 0x7ffff7c70000 already mapped
build/X86/sim/process.cc:333: warn: Process::allocateMem: addr 0x7ffff7c70000 already mapped
build/X86/sim/process.cc:333: warn: Process::allocateMem: addr 0x7ffff7c70000 already mapped
build/X86/sim/process.cc:333: warn: Process::allocateMem: addr 0x7ffff7c70000 already mapped
build/X86/sim/process.cc:333: warn: Process::allocateMem: addr 0x7ffff7c70000 already mapped
build/X86/sim/process.cc:333: warn: Process::allocateMem: addr 0x7ffff7c21000 already mapped
build/X86/sim/process.cc:333: warn: Process::allocateMem: addr 0x7ffff7c21000 already mapped
build/X86/arch/x86/faults.cc:166: panic: Tried to write unmapped address 0x7ffff75d1ad8.
PC: (0x7ffff800a814=>0x7ffff800a819).(0=>1), Instr:   MOV_M_R : st   rax, SS:[t0 + rsp + 0x38]
Memory Usage: 5091280 KBytes
Program aborted at tick 14352032000
--- BEGIN LIBC BACKTRACE ---
./build/X86/gem5.debug(+0x1188119)[0x559a4c452119]
./build/X86/gem5.debug(+0x11ae6b4)[0x559a4c4786b4]
/lib/x86_64-linux-gnu/libpthread.so.0(+0x14420)[0x7f5fbfbef420]
/lib/x86_64-linux-gnu/libc.so.6(gsignal+0xcb)[0x7f5fbf15900b]
/lib/x86_64-linux-gnu/libc.so.6(abort+0x12b)[0x7f5fbf138859]
./build/X86/gem5.debug(+0x1eef94)[0x559a4b4b8f94]
./build/X86/gem5.debug(+0x261f59)[0x559a4b52bf59]
./build/X86/gem5.debug(+0x1364de7)[0x559a4c62ede7]
./build/X86/gem5.debug(+0x1355dae)[0x559a4c61fdae]
./build/X86/gem5.debug(+0x1354356)[0x559a4c61e356]
./build/X86/gem5.debug(+0x1353a2e)[0x559a4c61da2e]
./build/X86/gem5.debug(+0x13520b1)[0x559a4c61c0b1]
./build/X86/gem5.debug(+0x1362ee6)[0x559a4c62cee6]
./build/X86/gem5.debug(+0x135fd15)[0x559a4c629d15]
./build/X86/gem5.debug(+0x136952c)[0x559a4c63352c]
./build/X86/gem5.debug(+0x2812a0)[0x559a4b54b2a0]
./build/X86/gem5.debug(+0x27e784)[0x559a4b548784]
./build/X86/gem5.debug(+0x119c6c0)[0x559a4c4666c0]
./build/X86/gem5.debug(+0x11c9305)[0x559a4c493305]
./build/X86/gem5.debug(+0x11c8dbb)[0x559a4c492dbb]
./build/X86/gem5.debug(+0x19643b0)[0x559a4cc2e3b0]
./build/X86/gem5.debug(+0x1962a62)[0x559a4cc2ca62]
./build/X86/gem5.debug(+0x195ec15)[0x559a4cc28c15]
./build/X86/gem5.debug(+0x195ec80)[0x559a4cc28c80]
./build/X86/gem5.debug(+0x202fe4)[0x559a4b4ccfe4]
/lib/x86_64-linux-gnu/libpython3.8.so.1.0(+0x2a8748)[0x7f5fbfea8748]
/lib/x86_64-linux-gnu/libpython3.8.so.1.0(_PyEval_EvalFrameDefault+0x8dd8)[0x7f5fbfc7df48]
/lib/x86_64-linux-gnu/libpython3.8.so.1.0(_PyEval_EvalCodeWithName+0x8fb)[0x7f5fbfdcae4b]
/lib/x86_64-linux-gnu/libpython3.8.so.1.0(_PyFunction_Vectorcall+0x94)[0x7f5fbfea8124]
/lib/x86_64-linux-gnu/libpython3.8.so.1.0(+0x74d6d)[0x7f5fbfc74d6d]
/lib/x86_64-linux-gnu/libpython3.8.so.1.0(_PyEval_EvalFrameDefault+0x7d86)[0x7f5fbfc7cef6]
/lib/x86_64-linux-gnu/libpython3.8.so.1.0(_PyEval_EvalCodeWithName+0x8fb)[0x7f5fbfdcae4b]
--- END LIBC BACKTRACE ---
Command terminated by signal 6
	Command being timed: "./build/X86/gem5.debug /home/gem5/gem5_new/configs/mytest2/hello.py -c 10 -b Threads"
	User time (seconds): 1493.39
	System time (seconds): 0.33
	Percent of CPU this job got: 99%
	Elapsed (wall clock) time (h:mm:ss or m:ss): 24:54.12
	Average shared text size (kbytes): 0
	Average unshared data size (kbytes): 0
	Average stack size (kbytes): 0
	Average total size (kbytes): 0
	Maximum resident set size (kbytes): 843364
	Average resident set size (kbytes): 0
	Major (requiring I/O) page faults: 0
	Minor (reclaiming a frame) page faults: 200142
	Voluntary context switches: 8
	Involuntary context switches: 10521
	Swaps: 0
	File system inputs: 0
	File system outputs: 5304
	Socket messages sent: 0
	Socket messages received: 0
	Signals delivered: 0
	Page size (bytes): 4096
	Exit status: 0
11
Global frequency set at 1000000000000 ticks per second
build/X86/mem/dram_interface.cc:690: warn: DRAM device capacity (8192 Mbytes) does not match the address range assigned (4096 Mbytes)
build/X86/base/statistics.hh:280: warn: One of the stats is a legacy stat. Legacy stat is a stat that does not belong to any statistics::Group. Legacy stat is deprecated.
0: board.remote_gdb: listening for remote gdb on port 7000
gem5 Simulator System.  https://www.gem5.org
gem5 is copyrighted software; use the --copyright option for details.

gem5 version 22.1.0.0
gem5 compiled Jun 11 2024 23:59:17
gem5 started Jun 14 2024 08:15:21
gem5 executing on gem5-VirtualBox, pid 189205
command line: ./build/X86/gem5.debug /home/gem5/gem5_new/configs/mytest2/hello.py -c 11 -b Threads

warn: The simulate package is still in a beta state. The gem5 project does not guarantee the APIs within this package will remain consistent across upcoming releases.
warn: No dot file generated. Please install pydot to generate the dot file and pdf.
build/X86/sim/simulate.cc:192: info: Entering event queue @ 0.  Starting simulation...
build/X86/mem/ruby/system/Sequencer.cc:613: warn: Replacement policy updates recently became the responsibility of SLICC state machines. Make sure to setMRU() near callbacks in .sm files!
build/X86/arch/x86/cpuid.cc:180: warn: x86 cpuid family 0x0000: unimplemented function 13
build/X86/sim/mem_state.cc:443: info: Increasing stack size by one page.
build/X86/sim/syscall_emul.cc:74: warn: ignoring syscall mprotect(...)
build/X86/sim/syscall_emul.cc:74: warn: ignoring syscall mprotect(...)
build/X86/sim/syscall_emul.cc:74: warn: ignoring syscall mprotect(...)
build/X86/sim/syscall_emul.cc:74: warn: ignoring syscall mprotect(...)
build/X86/sim/syscall_emul.cc:74: warn: ignoring syscall mprotect(...)
build/X86/sim/syscall_emul.cc:74: warn: ignoring syscall mprotect(...)
build/X86/sim/syscall_emul.cc:74: warn: ignoring syscall mprotect(...)
build/X86/sim/syscall_emul.cc:74: warn: ignoring syscall mprotect(...)
build/X86/sim/syscall_emul.cc:74: warn: ignoring syscall set_robust_list(...)
build/X86/sim/syscall_emul.cc:85: warn: ignoring syscall rt_sigaction(...)
      (further warnings will be suppressed)
build/X86/sim/syscall_emul.cc:85: warn: ignoring syscall rt_sigprocmask(...)
      (further warnings will be suppressed)
build/X86/sim/mem_state.cc:443: info: Increasing stack size by one page.
build/X86/arch/x86/generated/exec-ns.cc.inc:27: warn: instruction 'palignr_Vdq_Wdq_Ib' unimplemented
build/X86/arch/x86/generated/exec-ns.cc.inc:27: warn: instruction 'palignr_Vdq_Wdq_Ib' unimplemented
build/X86/arch/x86/generated/exec-ns.cc.inc:27: warn: instruction 'palignr_Vdq_Wdq_Ib' unimplemented
build/X86/arch/x86/generated/exec-ns.cc.inc:27: warn: instruction 'palignr_Vdq_Wdq_Ib' unimplemented
Running on 11 cores. with 409600 values
build/X86/sim/syscall_emul.cc:74: warn: ignoring syscall mprotect(...)
build/X86/sim/power_state.cc:105: warn: PowerState: Already in the requested power state, request ignored
build/X86/sim/syscall_emul.cc:74: warn: ignoring syscall set_robust_list(...)
build/X86/sim/syscall_emul.cc:74: warn: ignoring syscall mprotect(...)
build/X86/sim/syscall_emul.cc:74: warn: ignoring syscall set_robust_list(...)
build/X86/sim/syscall_emul.cc:74: warn: ignoring syscall mprotect(...)
build/X86/sim/syscall_emul.cc:74: warn: ignoring syscall set_robust_list(...)
build/X86/sim/syscall_emul.cc:74: warn: ignoring syscall mprotect(...)
build/X86/sim/syscall_emul.cc:74: warn: ignoring syscall set_robust_list(...)
build/X86/sim/syscall_emul.cc:74: warn: ignoring syscall mprotect(...)
build/X86/sim/syscall_emul.cc:74: warn: ignoring syscall set_robust_list(...)
build/X86/sim/syscall_emul.cc:74: warn: ignoring syscall mprotect(...)
build/X86/sim/syscall_emul.cc:74: warn: ignoring syscall set_robust_list(...)
build/X86/sim/syscall_emul.cc:74: warn: ignoring syscall mprotect(...)
build/X86/sim/syscall_emul.cc:74: warn: ignoring syscall set_robust_list(...)
build/X86/sim/syscall_emul.cc:74: warn: ignoring syscall mprotect(...)
build/X86/sim/syscall_emul.cc:74: warn: ignoring syscall set_robust_list(...)
build/X86/sim/syscall_emul.cc:74: warn: ignoring syscall mprotect(...)
build/X86/sim/syscall_emul.cc:74: warn: ignoring syscall set_robust_list(...)
build/X86/sim/syscall_emul.cc:74: warn: ignoring syscall mprotect(...)
build/X86/sim/syscall_emul.cc:74: warn: ignoring syscall set_robust_list(...)
build/X86/sim/process.cc:333: warn: Process::allocateMem: addr 0x7ffff7c6f000 already mapped
build/X86/sim/process.cc:333: warn: Process::allocateMem: addr 0x7ffff7c6f000 already mapped
build/X86/sim/process.cc:333: warn: Process::allocateMem: addr 0x7ffff7c6f000 already mapped
build/X86/sim/process.cc:333: warn: Process::allocateMem: addr 0x7ffff7c6f000 already mapped
build/X86/sim/process.cc:333: warn: Process::allocateMem: addr 0x7ffff7c6f000 already mapped
build/X86/sim/process.cc:333: warn: Process::allocateMem: addr 0x7ffff7c6f000 already mapped
build/X86/sim/process.cc:333: warn: Process::allocateMem: addr 0x7ffff7c6f000 already mapped
build/X86/sim/process.cc:333: warn: Process::allocateMem: addr 0x7ffff7c6f000 already mapped
build/X86/sim/syscall_emul.cc:74: warn: ignoring syscall mprotect(...)
build/X86/sim/syscall_emul.cc:74: warn: ignoring syscall mprotect(...)
build/X86/sim/syscall_emul.cc:74: warn: ignoring syscall mprotect(...)
build/X86/sim/syscall_emul.cc:74: warn: ignoring syscall mprotect(...)
build/X86/sim/syscall_emul.cc:74: warn: ignoring syscall mprotect(...)
build/X86/sim/syscall_emul.cc:74: warn: ignoring syscall mprotect(...)
build/X86/sim/syscall_emul.cc:74: warn: ignoring syscall mprotect(...)
build/X86/sim/syscall_emul.cc:74: warn: ignoring syscall mprotect(...)
build/X86/sim/syscall_emul.cc:74: warn: ignoring syscall mprotect(...)
build/X86/sim/process.cc:333: warn: Process::allocateMem: addr 0x7ffff7c70000 already mapped
build/X86/sim/process.cc:333: warn: Process::allocateMem: addr 0x7ffff7c70000 already mapped
build/X86/sim/process.cc:333: warn: Process::allocateMem: addr 0x7ffff7c70000 already mapped
build/X86/sim/process.cc:333: warn: Process::allocateMem: addr 0x7ffff7c70000 already mapped
build/X86/sim/process.cc:333: warn: Process::allocateMem: addr 0x7ffff7c70000 already mapped
build/X86/sim/process.cc:333: warn: Process::allocateMem: addr 0x7ffff7c70000 already mapped
build/X86/sim/process.cc:333: warn: Process::allocateMem: addr 0x7ffff7c21000 already mapped
build/X86/sim/process.cc:333: warn: Process::allocateMem: addr 0x7ffff7d2d000 already mapped
build/X86/sim/process.cc:333: warn: Process::allocateMem: addr 0x7ffff7d2d000 already mapped
build/X86/sim/process.cc:333: warn: Process::allocateMem: addr 0x7ffff7d2d000 already mapped
build/X86/sim/process.cc:333: warn: Process::allocateMem: addr 0x7ffff7d2d000 already mapped
build/X86/sim/process.cc:333: warn: Process::allocateMem: addr 0x7ffff7d1b000 already mapped
build/X86/sim/process.cc:333: warn: Process::allocateMem: addr 0x7ffff7d1b000 already mapped
build/X86/sim/process.cc:333: warn: Process::allocateMem: addr 0x7ffff7d1b000 already mapped
build/X86/sim/process.cc:333: warn: Process::allocateMem: addr 0x7ffff7d1b000 already mapped
build/X86/sim/process.cc:333: warn: Process::allocateMem: addr 0x7ffff7d1b000 already mapped
build/X86/sim/process.cc:333: warn: Process::allocateMem: addr 0x7ffff7d1b000 already mapped
build/X86/sim/process.cc:333: warn: Process::allocateMem: addr 0x7ffff7d1b000 already mapped
build/X86/sim/process.cc:333: warn: Process::allocateMem: addr 0x7ffff7d1b000 already mapped
build/X86/sim/syscall_emul.cc:74: warn: ignoring syscall madvise(...)
build/X86/sim/syscall_emul.cc:74: warn: ignoring syscall madvise(...)
build/X86/sim/syscall_emul.cc:74: warn: ignoring syscall madvise(...)
build/X86/sim/syscall_emul.cc:74: warn: ignoring syscall madvise(...)
build/X86/sim/syscall_emul.cc:74: warn: ignoring syscall madvise(...)
build/X86/sim/syscall_emul.cc:74: warn: ignoring syscall madvise(...)
build/X86/sim/syscall_emul.cc:74: warn: ignoring syscall madvise(...)
build/X86/sim/syscall_emul.cc:74: warn: ignoring syscall madvise(...)
build/X86/sim/syscall_emul.cc:74: warn: ignoring syscall madvise(...)
Waiting for other threads to complete
build/X86/sim/syscall_emul.cc:74: warn: ignoring syscall madvise(...)
Validating...Success!
	Command being timed: "./build/X86/gem5.debug /home/gem5/gem5_new/configs/mytest2/hello.py -c 11 -b Threads"
	User time (seconds): 2016.20
	System time (seconds): 0.38
	Percent of CPU this job got: 99%
	Elapsed (wall clock) time (h:mm:ss or m:ss): 33:36.74
	Average shared text size (kbytes): 0
	Average unshared data size (kbytes): 0
	Average stack size (kbytes): 0
	Average total size (kbytes): 0
	Maximum resident set size (kbytes): 881700
	Average resident set size (kbytes): 0
	Major (requiring I/O) page faults: 0
	Minor (reclaiming a frame) page faults: 209826
	Voluntary context switches: 9
	Involuntary context switches: 9768
	Swaps: 0
	File system inputs: 0
	File system outputs: 9000
	Socket messages sent: 0
	Socket messages received: 0
	Signals delivered: 0
	Page size (bytes): 4096
	Exit status: 0
12
Global frequency set at 1000000000000 ticks per second
build/X86/mem/dram_interface.cc:690: warn: DRAM device capacity (8192 Mbytes) does not match the address range assigned (4096 Mbytes)
build/X86/base/statistics.hh:280: warn: One of the stats is a legacy stat. Legacy stat is a stat that does not belong to any statistics::Group. Legacy stat is deprecated.
0: board.remote_gdb: listening for remote gdb on port 7000
gem5 Simulator System.  https://www.gem5.org
gem5 is copyrighted software; use the --copyright option for details.

gem5 version 22.1.0.0
gem5 compiled Jun 11 2024 23:59:17
gem5 started Jun 14 2024 08:48:58
gem5 executing on gem5-VirtualBox, pid 189238
command line: ./build/X86/gem5.debug /home/gem5/gem5_new/configs/mytest2/hello.py -c 12 -b Threads

warn: The simulate package is still in a beta state. The gem5 project does not guarantee the APIs within this package will remain consistent across upcoming releases.
warn: No dot file generated. Please install pydot to generate the dot file and pdf.
build/X86/sim/simulate.cc:192: info: Entering event queue @ 0.  Starting simulation...
build/X86/mem/ruby/system/Sequencer.cc:613: warn: Replacement policy updates recently became the responsibility of SLICC state machines. Make sure to setMRU() near callbacks in .sm files!
build/X86/arch/x86/cpuid.cc:180: warn: x86 cpuid family 0x0000: unimplemented function 13
build/X86/sim/mem_state.cc:443: info: Increasing stack size by one page.
build/X86/sim/syscall_emul.cc:74: warn: ignoring syscall mprotect(...)
build/X86/sim/syscall_emul.cc:74: warn: ignoring syscall mprotect(...)
build/X86/sim/syscall_emul.cc:74: warn: ignoring syscall mprotect(...)
build/X86/sim/syscall_emul.cc:74: warn: ignoring syscall mprotect(...)
build/X86/sim/syscall_emul.cc:74: warn: ignoring syscall mprotect(...)
build/X86/sim/syscall_emul.cc:74: warn: ignoring syscall mprotect(...)
build/X86/sim/syscall_emul.cc:74: warn: ignoring syscall mprotect(...)
build/X86/sim/syscall_emul.cc:74: warn: ignoring syscall mprotect(...)
build/X86/sim/syscall_emul.cc:74: warn: ignoring syscall set_robust_list(...)
build/X86/sim/syscall_emul.cc:85: warn: ignoring syscall rt_sigaction(...)
      (further warnings will be suppressed)
build/X86/sim/syscall_emul.cc:85: warn: ignoring syscall rt_sigprocmask(...)
      (further warnings will be suppressed)
build/X86/sim/mem_state.cc:443: info: Increasing stack size by one page.
build/X86/arch/x86/generated/exec-ns.cc.inc:27: warn: instruction 'palignr_Vdq_Wdq_Ib' unimplemented
build/X86/arch/x86/generated/exec-ns.cc.inc:27: warn: instruction 'palignr_Vdq_Wdq_Ib' unimplemented
build/X86/arch/x86/generated/exec-ns.cc.inc:27: warn: instruction 'palignr_Vdq_Wdq_Ib' unimplemented
build/X86/arch/x86/generated/exec-ns.cc.inc:27: warn: instruction 'palignr_Vdq_Wdq_Ib' unimplemented
Running on 12 cores. with 409600 values
build/X86/sim/syscall_emul.cc:74: warn: ignoring syscall mprotect(...)
build/X86/sim/power_state.cc:105: warn: PowerState: Already in the requested power state, request ignored
build/X86/sim/syscall_emul.cc:74: warn: ignoring syscall set_robust_list(...)
build/X86/sim/syscall_emul.cc:74: warn: ignoring syscall mprotect(...)
build/X86/sim/syscall_emul.cc:74: warn: ignoring syscall set_robust_list(...)
build/X86/sim/syscall_emul.cc:74: warn: ignoring syscall mprotect(...)
build/X86/sim/syscall_emul.cc:74: warn: ignoring syscall set_robust_list(...)
build/X86/sim/syscall_emul.cc:74: warn: ignoring syscall mprotect(...)
build/X86/sim/syscall_emul.cc:74: warn: ignoring syscall set_robust_list(...)
build/X86/sim/syscall_emul.cc:74: warn: ignoring syscall mprotect(...)
build/X86/sim/syscall_emul.cc:74: warn: ignoring syscall set_robust_list(...)
build/X86/sim/syscall_emul.cc:74: warn: ignoring syscall mprotect(...)
build/X86/sim/syscall_emul.cc:74: warn: ignoring syscall set_robust_list(...)
build/X86/sim/syscall_emul.cc:74: warn: ignoring syscall mprotect(...)
build/X86/sim/syscall_emul.cc:74: warn: ignoring syscall set_robust_list(...)
build/X86/sim/syscall_emul.cc:74: warn: ignoring syscall mprotect(...)
build/X86/sim/syscall_emul.cc:74: warn: ignoring syscall set_robust_list(...)
build/X86/sim/syscall_emul.cc:74: warn: ignoring syscall mprotect(...)
build/X86/sim/syscall_emul.cc:74: warn: ignoring syscall set_robust_list(...)
build/X86/sim/syscall_emul.cc:74: warn: ignoring syscall mprotect(...)
build/X86/sim/syscall_emul.cc:74: warn: ignoring syscall set_robust_list(...)
build/X86/sim/syscall_emul.cc:74: warn: ignoring syscall mprotect(...)
build/X86/sim/syscall_emul.cc:74: warn: ignoring syscall set_robust_list(...)
build/X86/sim/process.cc:333: warn: Process::allocateMem: addr 0x7ffff7c6f000 already mapped
build/X86/sim/process.cc:333: warn: Process::allocateMem: addr 0x7ffff7c6f000 already mapped
build/X86/sim/process.cc:333: warn: Process::allocateMem: addr 0x7ffff7c6f000 already mapped
build/X86/sim/process.cc:333: warn: Process::allocateMem: addr 0x7ffff7c6f000 already mapped
build/X86/sim/process.cc:333: warn: Process::allocateMem: addr 0x7ffff7c6f000 already mapped
build/X86/sim/process.cc:333: warn: Process::allocateMem: addr 0x7ffff7c6f000 already mapped
build/X86/sim/process.cc:333: warn: Process::allocateMem: addr 0x7ffff7c6f000 already mapped
build/X86/sim/process.cc:333: warn: Process::allocateMem: addr 0x7ffff7c6f000 already mapped
build/X86/sim/syscall_emul.cc:74: warn: ignoring syscall mprotect(...)
build/X86/sim/syscall_emul.cc:74: warn: ignoring syscall mprotect(...)
build/X86/sim/syscall_emul.cc:74: warn: ignoring syscall mprotect(...)
build/X86/sim/syscall_emul.cc:74: warn: ignoring syscall mprotect(...)
build/X86/sim/syscall_emul.cc:74: warn: ignoring syscall mprotect(...)
build/X86/sim/syscall_emul.cc:74: warn: ignoring syscall mprotect(...)
build/X86/sim/syscall_emul.cc:74: warn: ignoring syscall mprotect(...)
build/X86/sim/syscall_emul.cc:74: warn: ignoring syscall mprotect(...)
build/X86/sim/syscall_emul.cc:74: warn: ignoring syscall mprotect(...)
build/X86/sim/process.cc:333: warn: Process::allocateMem: addr 0x7ffff7c70000 already mapped
build/X86/sim/process.cc:333: warn: Process::allocateMem: addr 0x7ffff7c70000 already mapped
build/X86/sim/process.cc:333: warn: Process::allocateMem: addr 0x7ffff7c70000 already mapped
build/X86/sim/process.cc:333: warn: Process::allocateMem: addr 0x7ffff7c70000 already mapped
[...]

gem5 version 22.1.0.0
gem5 compiled Jun 11 2024 23:59:17
gem5 started Jun 14 2024 10:34:31
gem5 executing on gem5-VirtualBox, pid 189312
command line: ./build/X86/gem5.debug /home/gem5/gem5_new/configs/mytest2/hello.py -c 15 -b Threads

warn: The simulate package is still in a beta state. The gem5 project does not guarantee the APIs within this package will remain consistent across upcoming releases.
warn: No dot file generated. Please install pydot to generate the dot file and pdf.
build/X86/sim/simulate.cc:192: info: Entering event queue @ 0.  Starting simulation...
build/X86/mem/ruby/system/Sequencer.cc:613: warn: Replacement policy updates recently became the responsibility of SLICC state machines. Make sure to setMRU() near callbacks in .sm files!
build/X86/arch/x86/cpuid.cc:180: warn: x86 cpuid family 0x0000: unimplemented function 13
build/X86/sim/mem_state.cc:443: info: Increasing stack size by one page.
build/X86/sim/syscall_emul.cc:74: warn: ignoring syscall mprotect(...)
build/X86/sim/syscall_emul.cc:74: warn: ignoring syscall mprotect(...)
build/X86/sim/syscall_emul.cc:74: warn: ignoring syscall mprotect(...)
build/X86/sim/syscall_emul.cc:74: warn: ignoring syscall mprotect(...)
build/X86/sim/syscall_emul.cc:74: warn: ignoring syscall mprotect(...)
build/X86/sim/syscall_emul.cc:74: warn: ignoring syscall mprotect(...)
build/X86/sim/syscall_emul.cc:74: warn: ignoring syscall mprotect(...)
build/X86/sim/syscall_emul.cc:74: warn: ignoring syscall mprotect(...)
build/X86/sim/syscall_emul.cc:74: warn: ignoring syscall set_robust_list(...)
build/X86/sim/syscall_emul.cc:85: warn: ignoring syscall rt_sigaction(...)
      (further warnings will be suppressed)
build/X86/sim/syscall_emul.cc:85: warn: ignoring syscall rt_sigprocmask(...)
      (further warnings will be suppressed)
build/X86/sim/mem_state.cc:443: info: Increasing stack size by one page.
build/X86/arch/x86/generated/exec-ns.cc.inc:27: warn: instruction 'palignr_Vdq_Wdq_Ib' unimplemented
build/X86/arch/x86/generated/exec-ns.cc.inc:27: warn: instruction 'palignr_Vdq_Wdq_Ib' unimplemented
build/X86/arch/x86/generated/exec-ns.cc.inc:27: warn: instruction 'palignr_Vdq_Wdq_Ib' unimplemented
build/X86/arch/x86/generated/exec-ns.cc.inc:27: warn: instruction 'palignr_Vdq_Wdq_Ib' unimplemented
Running on 15 cores. with 409600 values
build/X86/sim/syscall_emul.cc:74: warn: ignoring syscall mprotect(...)
build/X86/sim/power_state.cc:105: warn: PowerState: Already in the requested power state, request ignored
build/X86/sim/syscall_emul.cc:74: warn: ignoring syscall set_robust_list(...)
build/X86/sim/syscall_emul.cc:74: warn: ignoring syscall mprotect(...)
build/X86/sim/syscall_emul.cc:74: warn: ignoring syscall set_robust_list(...)
build/X86/sim/syscall_emul.cc:74: warn: ignoring syscall mprotect(...)
build/X86/sim/syscall_emul.cc:74: warn: ignoring syscall set_robust_list(...)
build/X86/sim/syscall_emul.cc:74: warn: ignoring syscall mprotect(...)
build/X86/sim/syscall_emul.cc:74: warn: ignoring syscall set_robust_list(...)
build/X86/sim/syscall_emul.cc:74: warn: ignoring syscall mprotect(...)
build/X86/sim/syscall_emul.cc:74: warn: ignoring syscall set_robust_list(...)
build/X86/sim/syscall_emul.cc:74: warn: ignoring syscall mprotect(...)
build/X86/sim/syscall_emul.cc:74: warn: ignoring syscall set_robust_list(...)
build/X86/sim/syscall_emul.cc:74: warn: ignoring syscall mprotect(...)
build/X86/sim/syscall_emul.cc:74: warn: ignoring syscall set_robust_list(...)
build/X86/sim/syscall_emul.cc:74: warn: ignoring syscall mprotect(...)
build/X86/sim/syscall_emul.cc:74: warn: ignoring syscall set_robust_list(...)
build/X86/sim/syscall_emul.cc:74: warn: ignoring syscall mprotect(...)
build/X86/sim/syscall_emul.cc:74: warn: ignoring syscall set_robust_list(...)
build/X86/sim/syscall_emul.cc:74: warn: ignoring syscall mprotect(...)
build/X86/sim/syscall_emul.cc:74: warn: ignoring syscall set_robust_list(...)
build/X86/sim/syscall_emul.cc:74: warn: ignoring syscall mprotect(...)
build/X86/sim/syscall_emul.cc:74: warn: ignoring syscall set_robust_list(...)
build/X86/sim/syscall_emul.cc:74: warn: ignoring syscall mprotect(...)
build/X86/sim/syscall_emul.cc:74: warn: ignoring syscall set_robust_list(...)
build/X86/sim/syscall_emul.cc:74: warn: ignoring syscall mprotect(...)
build/X86/sim/syscall_emul.cc:74: warn: ignoring syscall set_robust_list(...)
build/X86/sim/syscall_emul.cc:74: warn: ignoring syscall mprotect(...)
build/X86/sim/syscall_emul.cc:74: warn: ignoring syscall set_robust_list(...)
build/X86/sim/process.cc:333: warn: Process::allocateMem: addr 0x7ffff7c6f000 already mapped
build/X86/sim/process.cc:333: warn: Process::allocateMem: addr 0x7ffff7c6f000 already mapped
build/X86/sim/process.cc:333: warn: Process::allocateMem: addr 0x7ffff7c6f000 already mapped
build/X86/sim/process.cc:333: warn: Process::allocateMem: addr 0x7ffff7c6f000 already mapped
build/X86/sim/process.cc:333: warn: Process::allocateMem: addr 0x7ffff7c6f000 already mapped
build/X86/sim/process.cc:333: warn: Process::allocateMem: addr 0x7ffff7c6f000 already mapped
build/X86/sim/process.cc:333: warn: Process::allocateMem: addr 0x7ffff7c6f000 already mapped
build/X86/sim/process.cc:333: warn: Process::allocateMem: addr 0x7ffff7c6f000 already mapped
build/X86/sim/syscall_emul.cc:74: warn: ignoring syscall mprotect(...)
build/X86/sim/syscall_emul.cc:74: warn: ignoring syscall mprotect(...)
build/X86/sim/syscall_emul.cc:74: warn: ignoring syscall mprotect(...)
build/X86/sim/syscall_emul.cc:74: warn: ignoring syscall mprotect(...)
build/X86/sim/syscall_emul.cc:74: warn: ignoring syscall mprotect(...)
build/X86/sim/syscall_emul.cc:74: warn: ignoring syscall mprotect(...)
build/X86/sim/syscall_emul.cc:74: warn: ignoring syscall mprotect(...)
build/X86/sim/syscall_emul.cc:74: warn: ignoring syscall mprotect(...)
build/X86/sim/syscall_emul.cc:74: warn: ignoring syscall mprotect(...)
build/X86/sim/process.cc:333: warn: Process::allocateMem: addr 0x7ffff7c70000 already mapped
build/X86/sim/process.cc:333: warn: Process::allocateMem: addr 0x7ffff7c70000 already mapped
build/X86/sim/process.cc:333: warn: Process::allocateMem: addr 0x7ffff7c70000 already mapped
build/X86/sim/process.cc:333: warn: Process::allocateMem: addr 0x7ffff7c70000 already mapped
build/X86/sim/process.cc:333: warn: Process::allocateMem: addr 0x7ffff7c70000 already mapped
build/X86/sim/process.cc:333: warn: Process::allocateMem: addr 0x7ffff7c70000 already mapped
build/X86/sim/process.cc:333: warn: Process::allocateMem: addr 0x7ffff7c70000 already mapped
build/X86/sim/process.cc:333: warn: Process::allocateMem: addr 0x7ffff7c70000 already mapped
build/X86/sim/process.cc:333: warn: Process::allocateMem: addr 0x7ffff7c21000 already mapped
build/X86/sim/process.cc:333: warn: Process::allocateMem: addr 0x7ffff7c21000 already mapped
build/X86/sim/process.cc:333: warn: Process::allocateMem: addr 0x7ffff7d2d000 already mapped
build/X86/sim/process.cc:333: warn: Process::allocateMem: addr 0x7ffff7d2d000 already mapped
build/X86/sim/process.cc:333: warn: Process::allocateMem: addr 0x7ffff7d2d000 already mapped
build/X86/sim/process.cc:333: warn: Process::allocateMem: addr 0x7ffff7d2d000 already mapped
build/X86/sim/process.cc:333: warn: Process::allocateMem: addr 0x7ffff7d2d000 already mapped
build/X86/sim/process.cc:333: warn: Process::allocateMem: addr 0x7ffff7d1b000 already mapped
build/X86/sim/process.cc:333: warn: Process::allocateMem: addr 0x7ffff7d1b000 already mapped
build/X86/sim/process.cc:333: warn: Process::allocateMem: addr 0x7ffff7d1b000 already mapped
build/X86/sim/process.cc:333: warn: Process::allocateMem: addr 0x7ffff7d1b000 already mapped
build/X86/sim/process.cc:333: warn: Process::allocateMem: addr 0x7ffff7d1b000 already mapped
build/X86/sim/process.cc:333: warn: Process::allocateMem: addr 0x7ffff7d1b000 already mapped
build/X86/sim/process.cc:333: warn: Process::allocateMem: addr 0x7ffff7d1b000 already mapped
build/X86/sim/process.cc:333: warn: Process::allocateMem: addr 0x7ffff7d1b000 already mapped
build/X86/sim/syscall_emul.cc:74: warn: ignoring syscall madvise(...)
build/X86/sim/syscall_emul.cc:74: warn: ignoring syscall madvise(...)
build/X86/sim/syscall_emul.cc:74: warn: ignoring syscall madvise(...)
build/X86/sim/syscall_emul.cc:74: warn: ignoring syscall madvise(...)
build/X86/sim/syscall_emul.cc:74: warn: ignoring syscall madvise(...)
build/X86/sim/syscall_emul.cc:74: warn: ignoring syscall madvise(...)
build/X86/sim/syscall_emul.cc:74: warn: ignoring syscall madvise(...)
build/X86/sim/syscall_emul.cc:74: warn: ignoring syscall madvise(...)
build/X86/sim/syscall_emul.cc:74: warn: ignoring syscall madvise(...)
build/X86/sim/syscall_emul.cc:74: warn: ignoring syscall madvise(...)
build/X86/sim/syscall_emul.cc:74: warn: ignoring syscall madvise(...)
build/X86/sim/syscall_emul.cc:74: warn: ignoring syscall madvise(...)
Waiting for other threads to complete
build/X86/sim/syscall_emul.cc:74: warn: ignoring syscall madvise(...)
build/X86/sim/syscall_emul.cc:74: warn: ignoring syscall madvise(...)
Validating...Success!
	Command being timed: "./build/X86/gem5.debug /home/gem5/gem5_new/configs/mytest2/hello.py -c 15 -b Threads"
	User time (seconds): 2249.68
	System time (seconds): 0.48
	Percent of CPU this job got: 99%
	Elapsed (wall clock) time (h:mm:ss or m:ss): 37:30.55
	Average shared text size (kbytes): 0
	Average unshared data size (kbytes): 0
	Average stack size (kbytes): 0
	Average total size (kbytes): 0
	Maximum resident set size (kbytes): 949152
	Average resident set size (kbytes): 0
	Major (requiring I/O) page faults: 0
	Minor (reclaiming a frame) page faults: 227919
	Voluntary context switches: 10
	Involuntary context switches: 14539
	Swaps: 0
	File system inputs: 0
	File system outputs: 13784
	Socket messages sent: 0
	Socket messages received: 0
	Signals delivered: 0
	Page size (bytes): 4096
	Exit status: 0
16
Global frequency set at 1000000000000 ticks per second
build/X86/mem/dram_interface.cc:690: warn: DRAM device capacity (8192 Mbytes) does not match the address range assigned (4096 Mbytes)
build/X86/base/statistics.hh:280: warn: One of the stats is a legacy stat. Legacy stat is a stat that does not belong to any statistics::Group. Legacy stat is deprecated.
0: board.remote_gdb: listening for remote gdb on port 7000
gem5 Simulator System.  https://www.gem5.org
gem5 is copyrighted software; use the --copyright option for details.

gem5 version 22.1.0.0
gem5 compiled Jun 11 2024 23:59:17
gem5 started Jun 14 2024 11:12:02
gem5 executing on gem5-VirtualBox, pid 189342
command line: ./build/X86/gem5.debug /home/gem5/gem5_new/configs/mytest2/hello.py -c 16 -b Threads

warn: The simulate package is still in a beta state. The gem5 project does not guarantee the APIs within this package will remain consistent across upcoming releases.
warn: No dot file generated. Please install pydot to generate the dot file and pdf.
build/X86/sim/simulate.cc:192: info: Entering event queue @ 0.  Starting simulation...
build/X86/mem/ruby/system/Sequencer.cc:613: warn: Replacement policy updates recently became the responsibility of SLICC state machines. Make sure to setMRU() near callbacks in .sm files!
build/X86/arch/x86/cpuid.cc:180: warn: x86 cpuid family 0x0000: unimplemented function 13
build/X86/sim/mem_state.cc:443: info: Increasing stack size by one page.
build/X86/sim/syscall_emul.cc:74: warn: ignoring syscall mprotect(...)
build/X86/sim/syscall_emul.cc:74: warn: ignoring syscall mprotect(...)
build/X86/sim/syscall_emul.cc:74: warn: ignoring syscall mprotect(...)
build/X86/sim/syscall_emul.cc:74: warn: ignoring syscall mprotect(...)
build/X86/sim/syscall_emul.cc:74: warn: ignoring syscall mprotect(...)
build/X86/sim/syscall_emul.cc:74: warn: ignoring syscall mprotect(...)
build/X86/sim/syscall_emul.cc:74: warn: ignoring syscall mprotect(...)
build/X86/sim/syscall_emul.cc:74: warn: ignoring syscall mprotect(...)
build/X86/sim/syscall_emul.cc:74: warn: ignoring syscall set_robust_list(...)
build/X86/sim/syscall_emul.cc:85: warn: ignoring syscall rt_sigaction(...)
      (further warnings will be suppressed)
build/X86/sim/syscall_emul.cc:85: warn: ignoring syscall rt_sigprocmask(...)
      (further warnings will be suppressed)
build/X86/sim/mem_state.cc:443: info: Increasing stack size by one page.
build/X86/arch/x86/generated/exec-ns.cc.inc:27: warn: instruction 'palignr_Vdq_Wdq_Ib' unimplemented
build/X86/arch/x86/generated/exec-ns.cc.inc:27: warn: instruction 'palignr_Vdq_Wdq_Ib' unimplemented
build/X86/arch/x86/generated/exec-ns.cc.inc:27: warn: instruction 'palignr_Vdq_Wdq_Ib' unimplemented
build/X86/arch/x86/generated/exec-ns.cc.inc:27: warn: instruction 'palignr_Vdq_Wdq_Ib' unimplemented
Running on 16 cores. with 409600 values
build/X86/sim/syscall_emul.cc:74: warn: ignoring syscall mprotect(...)
build/X86/sim/power_state.cc:105: warn: PowerState: Already in the requested power state, request ignored
build/X86/sim/syscall_emul.cc:74: warn: ignoring syscall set_robust_list(...)
build/X86/sim/syscall_emul.cc:74: warn: ignoring syscall mprotect(...)
build/X86/sim/syscall_emul.cc:74: warn: ignoring syscall set_robust_list(...)
build/X86/sim/syscall_emul.cc:74: warn: ignoring syscall mprotect(...)
build/X86/sim/syscall_emul.cc:74: warn: ignoring syscall set_robust_list(...)
build/X86/sim/syscall_emul.cc:74: warn: ignoring syscall mprotect(...)
build/X86/sim/syscall_emul.cc:74: warn: ignoring syscall set_robust_list(...)
build/X86/sim/syscall_emul.cc:74: warn: ignoring syscall mprotect(...)
build/X86/sim/syscall_emul.cc:74: warn: ignoring syscall set_robust_list(...)
build/X86/sim/syscall_emul.cc:74: warn: ignoring syscall mprotect(...)
build/X86/sim/syscall_emul.cc:74: warn: ignoring syscall set_robust_list(...)
build/X86/sim/syscall_emul.cc:74: warn: ignoring syscall mprotect(...)
build/X86/sim/syscall_emul.cc:74: warn: ignoring syscall set_robust_list(...)
build/X86/sim/syscall_emul.cc:74: warn: ignoring syscall mprotect(...)
build/X86/sim/syscall_emul.cc:74: warn: ignoring syscall set_robust_list(...)
build/X86/sim/syscall_emul.cc:74: warn: ignoring syscall mprotect(...)
build/X86/sim/syscall_emul.cc:74: warn: ignoring syscall set_robust_list(...)
build/X86/sim/syscall_emul.cc:74: warn: ignoring syscall mprotect(...)
build/X86/sim/syscall_emul.cc:74: warn: ignoring syscall set_robust_list(...)
build/X86/sim/syscall_emul.cc:74: warn: ignoring syscall mprotect(...)
build/X86/sim/syscall_emul.cc:74: warn: ignoring syscall set_robust_list(...)
build/X86/sim/syscall_emul.cc:74: warn: ignoring syscall mprotect(...)
build/X86/sim/syscall_emul.cc:74: warn: ignoring syscall set_robust_list(...)
build/X86/sim/syscall_emul.cc:74: warn: ignoring syscall mprotect(...)
build/X86/sim/syscall_emul.cc:74: warn: ignoring syscall set_robust_list(...)
build/X86/sim/syscall_emul.cc:74: warn: ignoring syscall mprotect(...)
build/X86/sim/syscall_emul.cc:74: warn: ignoring syscall set_robust_list(...)
build/X86/sim/syscall_emul.cc:74: warn: ignoring syscall mprotect(...)
build/X86/sim/syscall_emul.cc:74: warn: ignoring syscall set_robust_list(...)
build/X86/sim/process.cc:333: warn: Process::allocateMem: addr 0x7ffff7c6f000 already mapped
build/X86/sim/process.cc:333: warn: Process::allocateMem: addr 0x7ffff7c6f000 already mapped
build/X86/sim/process.cc:333: warn: Process::allocateMem: addr 0x7ffff7c6f000 already mapped
build/X86/sim/process.cc:333: warn: Process::allocateMem: addr 0x7ffff7c6f000 already mapped
build/X86/sim/process.cc:333: warn: Process::allocateMem: addr 0x7ffff7c6f000 already mapped
build/X86/sim/process.cc:333: warn: Process::allocateMem: addr 0x7ffff7c6f000 already mapped
build/X86/sim/process.cc:333: warn: Process::allocateMem: addr 0x7ffff7c6f000 already mapped
build/X86/sim/process.cc:333: warn: Process::allocateMem: addr 0x7ffff7c6f000 already mapped
build/X86/sim/syscall_emul.cc:74: warn: ignoring syscall mprotect(...)
build/X86/sim/syscall_emul.cc:74: warn: ignoring syscall mprotect(...)
build/X86/sim/syscall_emul.cc:74: warn: ignoring syscall mprotect(...)
build/X86/sim/syscall_emul.cc:74: warn: ignoring syscall mprotect(...)
build/X86/sim/syscall_emul.cc:74: warn: ignoring syscall mprotect(...)
build/X86/sim/syscall_emul.cc:74: warn: ignoring syscall mprotect(...)
build/X86/sim/syscall_emul.cc:74: warn: ignoring syscall mprotect(...)
build/X86/sim/syscall_emul.cc:74: warn: ignoring syscall mprotect(...)
build/X86/sim/syscall_emul.cc:74: warn: ignoring syscall mprotect(...)
build/X86/sim/process.cc:333: warn: Process::allocateMem: addr 0x7ffff7c70000 already mapped
build/X86/sim/process.cc:333: warn: Process::allocateMem: addr 0x7ffff7c70000 already mapped
build/X86/sim/process.cc:333: warn: Process::allocateMem: addr 0x7ffff7c70000 already mapped
build/X86/sim/process.cc:333: warn: Process::allocateMem: addr 0x7ffff7c70000 already mapped
build/X86/sim/process.cc:333: warn: Process::allocateMem: addr 0x7ffff7c70000 already mapped
build/X86/sim/process.cc:333: warn: Process::allocateMem: addr 0x7ffff7d2d000 already mapped
build/X86/sim/process.cc:333: warn: Process::allocateMem: addr 0x7ffff7d2d000 already mapped
build/X86/sim/process.cc:333: warn: Process::allocateMem: addr 0x7ffff7d2d000 already mapped
build/X86/sim/process.cc:333: warn: Process::allocateMem: addr 0x7ffff7d2d000 already mapped
build/X86/sim/process.cc:333: warn: Process::allocateMem: addr 0x7ffff7d2d000 already mapped
build/X86/sim/process.cc:333: warn: Process::allocateMem: addr 0x7ffff7d1b000 already mapped
build/X86/sim/process.cc:333: warn: Process::allocateMem: addr 0x7ffff7d1b000 already mapped
build/X86/sim/process.cc:333: warn: Process::allocateMem: addr 0x7ffff7d1b000 already mapped
build/X86/sim/process.cc:333: warn: Process::allocateMem: addr 0x7ffff7d1b000 already mapped
build/X86/sim/process.cc:333: warn: Process::allocateMem: addr 0x7ffff7d1b000 already mapped
build/X86/sim/process.cc:333: warn: Process::allocateMem: addr 0x7ffff7d1b000 already mapped
build/X86/sim/process.cc:333: warn: Process::allocateMem: addr 0x7ffff7d1b000 already mapped
build/X86/sim/syscall_emul.cc:74: warn: ignoring syscall madvise(...)
build/X86/sim/syscall_emul.cc:74: warn: ignoring syscall madvise(...)
build/X86/sim/syscall_emul.cc:74: warn: ignoring syscall madvise(...)
build/X86/sim/syscall_emul.cc:74: warn: ignoring syscall madvise(...)
build/X86/sim/syscall_emul.cc:74: warn: ignoring syscall madvise(...)
build/X86/sim/syscall_emul.cc:74: warn: ignoring syscall madvise(...)
build/X86/sim/syscall_emul.cc:74: warn: ignoring syscall madvise(...)
build/X86/sim/syscall_emul.cc:74: warn: ignoring syscall madvise(...)
build/X86/sim/syscall_emul.cc:74: warn: ignoring syscall madvise(...)
Waiting for other threads to complete
build/X86/sim/syscall_emul.cc:74: warn: ignoring syscall madvise(...)
build/X86/sim/syscall_emul.cc:74: warn: ignoring syscall madvise(...)
build/X86/sim/syscall_emul.cc:74: warn: ignoring syscall madvise(...)
build/X86/sim/syscall_emul.cc:74: warn: ignoring syscall madvise(...)
build/X86/sim/syscall_emul.cc:74: warn: ignoring syscall madvise(...)
build/X86/sim/syscall_emul.cc:74: warn: ignoring syscall madvise(...)
Validating...Success!
	Command being timed: "./build/X86/gem5.debug /home/gem5/gem5_new/configs/mytest2/hello.py -c 16 -b Threads"
	User time (seconds): 2304.91
	System time (seconds): 0.42
	Percent of CPU this job got: 99%
	Elapsed (wall clock) time (h:mm:ss or m:ss): 38:25.55
	Average shared text size (kbytes): 0
	Average unshared data size (kbytes): 0
	Average stack size (kbytes): 0
	Average total size (kbytes): 0
	Maximum resident set size (kbytes): 967352
	Average resident set size (kbytes): 0
	Major (requiring I/O) page faults: 0
	Minor (reclaiming a frame) page faults: 231664
	Voluntary context switches: 10
	Involuntary context switches: 14086
	Swaps: 0
	File system inputs: 0
	File system outputs: 15216
	Socket messages sent: 0
	Socket messages received: 0
	Signals delivered: 0
	Page size (bytes): 4096
	Exit status: 0
