
---------- Begin Simulation Statistics ----------
simSeconds                                   0.002286                       # Number of seconds simulated (Second)
simTicks                                   2285734977                       # Number of ticks simulated (Tick)
finalTick                                  2285734977                       # Number of ticks from beginning of simulation (restored from checkpoints and never reset) (Tick)
simFreq                                  1000000000000                       # The number of ticks per simulated second ((Tick/Second))
hostSeconds                                     32.79                       # Real time elapsed on the host (Second)
hostTickRate                                 69713298                       # The number of ticks simulated per host second (ticks/s) ((Tick/Second))
hostMemory                                    1366688                       # Number of bytes of host memory used (Byte)
simInsts                                      2369078                       # Number of instructions simulated (Count)
simOps                                        4183097                       # Number of ops (including micro ops) simulated (Count)
hostInstRate                                    72255                       # Simulator instruction rate (inst/s) ((Count/Second))
hostOpRate                                     127581                       # Simulator op (including micro ops) rate (op/s) ((Count/Second))
board.cache_hierarchy.dptw_caches0.blockedCycles::no_mshrs            0                       # number of cycles access was blocked (Cycle)
board.cache_hierarchy.dptw_caches0.blockedCycles::no_targets            0                       # number of cycles access was blocked (Cycle)
board.cache_hierarchy.dptw_caches0.blockedCauses::no_mshrs            0                       # number of times access was blocked (Count)
board.cache_hierarchy.dptw_caches0.blockedCauses::no_targets            0                       # number of times access was blocked (Count)
board.cache_hierarchy.dptw_caches0.avgBlocked::no_mshrs          nan                       # average number of cycles each access was blocked ((Cycle/Count))
board.cache_hierarchy.dptw_caches0.avgBlocked::no_targets          nan                       # average number of cycles each access was blocked ((Cycle/Count))
board.cache_hierarchy.dptw_caches0.replacements            0                       # number of replacements (Count)
board.cache_hierarchy.dptw_caches0.power_state.pwrStateResidencyTicks::UNDEFINED   2285734977                       # Cumulative time (in ticks) in various power states (Tick)
board.cache_hierarchy.dptw_caches0.tags.tagsInUse            0                       # Average ticks per tags in use ((Tick/Count))
board.cache_hierarchy.dptw_caches0.tags.totalRefs            0                       # Total number of references to valid blocks. (Count)
board.cache_hierarchy.dptw_caches0.tags.sampledRefs            0                       # Sample count of references to valid blocks. (Count)
board.cache_hierarchy.dptw_caches0.tags.avgRefs          nan                       # Average number of references to valid blocks. ((Count/Count))
board.cache_hierarchy.dptw_caches0.tags.warmupTick            0                       # The tick when the warmup percentage was hit. (Tick)
board.cache_hierarchy.dptw_caches0.tags.tagAccesses            0                       # Number of tag accesses (Count)
board.cache_hierarchy.dptw_caches0.tags.dataAccesses            0                       # Number of data accesses (Count)
board.cache_hierarchy.dptw_caches0.tags.power_state.pwrStateResidencyTicks::UNDEFINED   2285734977                       # Cumulative time (in ticks) in various power states (Tick)
board.cache_hierarchy.dptw_caches1.blockedCycles::no_mshrs            0                       # number of cycles access was blocked (Cycle)
board.cache_hierarchy.dptw_caches1.blockedCycles::no_targets            0                       # number of cycles access was blocked (Cycle)
board.cache_hierarchy.dptw_caches1.blockedCauses::no_mshrs            0                       # number of times access was blocked (Count)
board.cache_hierarchy.dptw_caches1.blockedCauses::no_targets            0                       # number of times access was blocked (Count)
board.cache_hierarchy.dptw_caches1.avgBlocked::no_mshrs          nan                       # average number of cycles each access was blocked ((Cycle/Count))
board.cache_hierarchy.dptw_caches1.avgBlocked::no_targets          nan                       # average number of cycles each access was blocked ((Cycle/Count))
board.cache_hierarchy.dptw_caches1.replacements            0                       # number of replacements (Count)
board.cache_hierarchy.dptw_caches1.power_state.pwrStateResidencyTicks::UNDEFINED   2285734977                       # Cumulative time (in ticks) in various power states (Tick)
board.cache_hierarchy.dptw_caches1.tags.tagsInUse            0                       # Average ticks per tags in use ((Tick/Count))
board.cache_hierarchy.dptw_caches1.tags.totalRefs            0                       # Total number of references to valid blocks. (Count)
board.cache_hierarchy.dptw_caches1.tags.sampledRefs            0                       # Sample count of references to valid blocks. (Count)
board.cache_hierarchy.dptw_caches1.tags.avgRefs          nan                       # Average number of references to valid blocks. ((Count/Count))
board.cache_hierarchy.dptw_caches1.tags.warmupTick            0                       # The tick when the warmup percentage was hit. (Tick)
board.cache_hierarchy.dptw_caches1.tags.tagAccesses            0                       # Number of tag accesses (Count)
board.cache_hierarchy.dptw_caches1.tags.dataAccesses            0                       # Number of data accesses (Count)
board.cache_hierarchy.dptw_caches1.tags.power_state.pwrStateResidencyTicks::UNDEFINED   2285734977                       # Cumulative time (in ticks) in various power states (Tick)
board.cache_hierarchy.dptw_caches2.blockedCycles::no_mshrs            0                       # number of cycles access was blocked (Cycle)
board.cache_hierarchy.dptw_caches2.blockedCycles::no_targets            0                       # number of cycles access was blocked (Cycle)
board.cache_hierarchy.dptw_caches2.blockedCauses::no_mshrs            0                       # number of times access was blocked (Count)
board.cache_hierarchy.dptw_caches2.blockedCauses::no_targets            0                       # number of times access was blocked (Count)
board.cache_hierarchy.dptw_caches2.avgBlocked::no_mshrs          nan                       # average number of cycles each access was blocked ((Cycle/Count))
board.cache_hierarchy.dptw_caches2.avgBlocked::no_targets          nan                       # average number of cycles each access was blocked ((Cycle/Count))
board.cache_hierarchy.dptw_caches2.replacements            0                       # number of replacements (Count)
board.cache_hierarchy.dptw_caches2.power_state.pwrStateResidencyTicks::UNDEFINED   2285734977                       # Cumulative time (in ticks) in various power states (Tick)
board.cache_hierarchy.dptw_caches2.tags.tagsInUse            0                       # Average ticks per tags in use ((Tick/Count))
board.cache_hierarchy.dptw_caches2.tags.totalRefs            0                       # Total number of references to valid blocks. (Count)
board.cache_hierarchy.dptw_caches2.tags.sampledRefs            0                       # Sample count of references to valid blocks. (Count)
board.cache_hierarchy.dptw_caches2.tags.avgRefs          nan                       # Average number of references to valid blocks. ((Count/Count))
board.cache_hierarchy.dptw_caches2.tags.warmupTick            0                       # The tick when the warmup percentage was hit. (Tick)
board.cache_hierarchy.dptw_caches2.tags.tagAccesses            0                       # Number of tag accesses (Count)
board.cache_hierarchy.dptw_caches2.tags.dataAccesses            0                       # Number of data accesses (Count)
board.cache_hierarchy.dptw_caches2.tags.power_state.pwrStateResidencyTicks::UNDEFINED   2285734977                       # Cumulative time (in ticks) in various power states (Tick)
board.cache_hierarchy.dptw_caches3.blockedCycles::no_mshrs            0                       # number of cycles access was blocked (Cycle)
board.cache_hierarchy.dptw_caches3.blockedCycles::no_targets            0                       # number of cycles access was blocked (Cycle)
board.cache_hierarchy.dptw_caches3.blockedCauses::no_mshrs            0                       # number of times access was blocked (Count)
board.cache_hierarchy.dptw_caches3.blockedCauses::no_targets            0                       # number of times access was blocked (Count)
board.cache_hierarchy.dptw_caches3.avgBlocked::no_mshrs          nan                       # average number of cycles each access was blocked ((Cycle/Count))
board.cache_hierarchy.dptw_caches3.avgBlocked::no_targets          nan                       # average number of cycles each access was blocked ((Cycle/Count))
board.cache_hierarchy.dptw_caches3.replacements            0                       # number of replacements (Count)
board.cache_hierarchy.dptw_caches3.power_state.pwrStateResidencyTicks::UNDEFINED   2285734977                       # Cumulative time (in ticks) in various power states (Tick)
board.cache_hierarchy.dptw_caches3.tags.tagsInUse            0                       # Average ticks per tags in use ((Tick/Count))
board.cache_hierarchy.dptw_caches3.tags.totalRefs            0                       # Total number of references to valid blocks. (Count)
board.cache_hierarchy.dptw_caches3.tags.sampledRefs            0                       # Sample count of references to valid blocks. (Count)
board.cache_hierarchy.dptw_caches3.tags.avgRefs          nan                       # Average number of references to valid blocks. ((Count/Count))
board.cache_hierarchy.dptw_caches3.tags.warmupTick            0                       # The tick when the warmup percentage was hit. (Tick)
board.cache_hierarchy.dptw_caches3.tags.tagAccesses            0                       # Number of tag accesses (Count)
board.cache_hierarchy.dptw_caches3.tags.dataAccesses            0                       # Number of data accesses (Count)
board.cache_hierarchy.dptw_caches3.tags.power_state.pwrStateResidencyTicks::UNDEFINED   2285734977                       # Cumulative time (in ticks) in various power states (Tick)
board.cache_hierarchy.iptw_caches0.blockedCycles::no_mshrs            0                       # number of cycles access was blocked (Cycle)
board.cache_hierarchy.iptw_caches0.blockedCycles::no_targets            0                       # number of cycles access was blocked (Cycle)
board.cache_hierarchy.iptw_caches0.blockedCauses::no_mshrs            0                       # number of times access was blocked (Count)
board.cache_hierarchy.iptw_caches0.blockedCauses::no_targets            0                       # number of times access was blocked (Count)
board.cache_hierarchy.iptw_caches0.avgBlocked::no_mshrs          nan                       # average number of cycles each access was blocked ((Cycle/Count))
board.cache_hierarchy.iptw_caches0.avgBlocked::no_targets          nan                       # average number of cycles each access was blocked ((Cycle/Count))
board.cache_hierarchy.iptw_caches0.replacements            0                       # number of replacements (Count)
board.cache_hierarchy.iptw_caches0.power_state.pwrStateResidencyTicks::UNDEFINED   2285734977                       # Cumulative time (in ticks) in various power states (Tick)
board.cache_hierarchy.iptw_caches0.tags.tagsInUse            0                       # Average ticks per tags in use ((Tick/Count))
board.cache_hierarchy.iptw_caches0.tags.totalRefs            0                       # Total number of references to valid blocks. (Count)
board.cache_hierarchy.iptw_caches0.tags.sampledRefs            0                       # Sample count of references to valid blocks. (Count)
board.cache_hierarchy.iptw_caches0.tags.avgRefs          nan                       # Average number of references to valid blocks. ((Count/Count))
board.cache_hierarchy.iptw_caches0.tags.warmupTick            0                       # The tick when the warmup percentage was hit. (Tick)
board.cache_hierarchy.iptw_caches0.tags.tagAccesses            0                       # Number of tag accesses (Count)
board.cache_hierarchy.iptw_caches0.tags.dataAccesses            0                       # Number of data accesses (Count)
board.cache_hierarchy.iptw_caches0.tags.power_state.pwrStateResidencyTicks::UNDEFINED   2285734977                       # Cumulative time (in ticks) in various power states (Tick)
board.cache_hierarchy.iptw_caches1.blockedCycles::no_mshrs            0                       # number of cycles access was blocked (Cycle)
board.cache_hierarchy.iptw_caches1.blockedCycles::no_targets            0                       # number of cycles access was blocked (Cycle)
board.cache_hierarchy.iptw_caches1.blockedCauses::no_mshrs            0                       # number of times access was blocked (Count)
board.cache_hierarchy.iptw_caches1.blockedCauses::no_targets            0                       # number of times access was blocked (Count)
board.cache_hierarchy.iptw_caches1.avgBlocked::no_mshrs          nan                       # average number of cycles each access was blocked ((Cycle/Count))
board.cache_hierarchy.iptw_caches1.avgBlocked::no_targets          nan                       # average number of cycles each access was blocked ((Cycle/Count))
board.cache_hierarchy.iptw_caches1.replacements            0                       # number of replacements (Count)
board.cache_hierarchy.iptw_caches1.power_state.pwrStateResidencyTicks::UNDEFINED   2285734977                       # Cumulative time (in ticks) in various power states (Tick)
board.cache_hierarchy.iptw_caches1.tags.tagsInUse            0                       # Average ticks per tags in use ((Tick/Count))
board.cache_hierarchy.iptw_caches1.tags.totalRefs            0                       # Total number of references to valid blocks. (Count)
board.cache_hierarchy.iptw_caches1.tags.sampledRefs            0                       # Sample count of references to valid blocks. (Count)
board.cache_hierarchy.iptw_caches1.tags.avgRefs          nan                       # Average number of references to valid blocks. ((Count/Count))
board.cache_hierarchy.iptw_caches1.tags.warmupTick            0                       # The tick when the warmup percentage was hit. (Tick)
board.cache_hierarchy.iptw_caches1.tags.tagAccesses            0                       # Number of tag accesses (Count)
board.cache_hierarchy.iptw_caches1.tags.dataAccesses            0                       # Number of data accesses (Count)
board.cache_hierarchy.iptw_caches1.tags.power_state.pwrStateResidencyTicks::UNDEFINED   2285734977                       # Cumulative time (in ticks) in various power states (Tick)
board.cache_hierarchy.iptw_caches2.blockedCycles::no_mshrs            0                       # number of cycles access was blocked (Cycle)
board.cache_hierarchy.iptw_caches2.blockedCycles::no_targets            0                       # number of cycles access was blocked (Cycle)
board.cache_hierarchy.iptw_caches2.blockedCauses::no_mshrs            0                       # number of times access was blocked (Count)
board.cache_hierarchy.iptw_caches2.blockedCauses::no_targets            0                       # number of times access was blocked (Count)
board.cache_hierarchy.iptw_caches2.avgBlocked::no_mshrs          nan                       # average number of cycles each access was blocked ((Cycle/Count))
board.cache_hierarchy.iptw_caches2.avgBlocked::no_targets          nan                       # average number of cycles each access was blocked ((Cycle/Count))
board.cache_hierarchy.iptw_caches2.replacements            0                       # number of replacements (Count)
board.cache_hierarchy.iptw_caches2.power_state.pwrStateResidencyTicks::UNDEFINED   2285734977                       # Cumulative time (in ticks) in various power states (Tick)
board.cache_hierarchy.iptw_caches2.tags.tagsInUse            0                       # Average ticks per tags in use ((Tick/Count))
board.cache_hierarchy.iptw_caches2.tags.totalRefs            0                       # Total number of references to valid blocks. (Count)
board.cache_hierarchy.iptw_caches2.tags.sampledRefs            0                       # Sample count of references to valid blocks. (Count)
board.cache_hierarchy.iptw_caches2.tags.avgRefs          nan                       # Average number of references to valid blocks. ((Count/Count))
board.cache_hierarchy.iptw_caches2.tags.warmupTick            0                       # The tick when the warmup percentage was hit. (Tick)
board.cache_hierarchy.iptw_caches2.tags.tagAccesses            0                       # Number of tag accesses (Count)
board.cache_hierarchy.iptw_caches2.tags.dataAccesses            0                       # Number of data accesses (Count)
board.cache_hierarchy.iptw_caches2.tags.power_state.pwrStateResidencyTicks::UNDEFINED   2285734977                       # Cumulative time (in ticks) in various power states (Tick)
board.cache_hierarchy.iptw_caches3.blockedCycles::no_mshrs            0                       # number of cycles access was blocked (Cycle)
board.cache_hierarchy.iptw_caches3.blockedCycles::no_targets            0                       # number of cycles access was blocked (Cycle)
board.cache_hierarchy.iptw_caches3.blockedCauses::no_mshrs            0                       # number of times access was blocked (Count)
board.cache_hierarchy.iptw_caches3.blockedCauses::no_targets            0                       # number of times access was blocked (Count)
board.cache_hierarchy.iptw_caches3.avgBlocked::no_mshrs          nan                       # average number of cycles each access was blocked ((Cycle/Count))
board.cache_hierarchy.iptw_caches3.avgBlocked::no_targets          nan                       # average number of cycles each access was blocked ((Cycle/Count))
board.cache_hierarchy.iptw_caches3.replacements            0                       # number of replacements (Count)
board.cache_hierarchy.iptw_caches3.power_state.pwrStateResidencyTicks::UNDEFINED   2285734977                       # Cumulative time (in ticks) in various power states (Tick)
board.cache_hierarchy.iptw_caches3.tags.tagsInUse            0                       # Average ticks per tags in use ((Tick/Count))
board.cache_hierarchy.iptw_caches3.tags.totalRefs            0                       # Total number of references to valid blocks. (Count)
board.cache_hierarchy.iptw_caches3.tags.sampledRefs            0                       # Sample count of references to valid blocks. (Count)
board.cache_hierarchy.iptw_caches3.tags.avgRefs          nan                       # Average number of references to valid blocks. ((Count/Count))
board.cache_hierarchy.iptw_caches3.tags.warmupTick            0                       # The tick when the warmup percentage was hit. (Tick)
board.cache_hierarchy.iptw_caches3.tags.tagAccesses            0                       # Number of tag accesses (Count)
board.cache_hierarchy.iptw_caches3.tags.dataAccesses            0                       # Number of data accesses (Count)
board.cache_hierarchy.iptw_caches3.tags.power_state.pwrStateResidencyTicks::UNDEFINED   2285734977                       # Cumulative time (in ticks) in various power states (Tick)
board.cache_hierarchy.l1dcaches0.demandHits::processor.cores0.core.data       725657                       # number of demand (read+write) hits (Count)
board.cache_hierarchy.l1dcaches0.demandHits::total       725657                       # number of demand (read+write) hits (Count)
board.cache_hierarchy.l1dcaches0.overallHits::processor.cores0.core.data       725657                       # number of overall hits (Count)
board.cache_hierarchy.l1dcaches0.overallHits::total       725657                       # number of overall hits (Count)
board.cache_hierarchy.l1dcaches0.demandMisses::processor.cores0.core.data        16266                       # number of demand (read+write) misses (Count)
board.cache_hierarchy.l1dcaches0.demandMisses::total        16266                       # number of demand (read+write) misses (Count)
board.cache_hierarchy.l1dcaches0.overallMisses::processor.cores0.core.data        16266                       # number of overall misses (Count)
board.cache_hierarchy.l1dcaches0.overallMisses::total        16266                       # number of overall misses (Count)
board.cache_hierarchy.l1dcaches0.demandMissLatency::processor.cores0.core.data    840059100                       # number of demand (read+write) miss ticks (Tick)
board.cache_hierarchy.l1dcaches0.demandMissLatency::total    840059100                       # number of demand (read+write) miss ticks (Tick)
board.cache_hierarchy.l1dcaches0.overallMissLatency::processor.cores0.core.data    840059100                       # number of overall miss ticks (Tick)
board.cache_hierarchy.l1dcaches0.overallMissLatency::total    840059100                       # number of overall miss ticks (Tick)
board.cache_hierarchy.l1dcaches0.demandAccesses::processor.cores0.core.data       741923                       # number of demand (read+write) accesses (Count)
board.cache_hierarchy.l1dcaches0.demandAccesses::total       741923                       # number of demand (read+write) accesses (Count)
board.cache_hierarchy.l1dcaches0.overallAccesses::processor.cores0.core.data       741923                       # number of overall (read+write) accesses (Count)
board.cache_hierarchy.l1dcaches0.overallAccesses::total       741923                       # number of overall (read+write) accesses (Count)
board.cache_hierarchy.l1dcaches0.demandMissRate::processor.cores0.core.data     0.021924                       # miss rate for demand accesses (Ratio)
board.cache_hierarchy.l1dcaches0.demandMissRate::total     0.021924                       # miss rate for demand accesses (Ratio)
board.cache_hierarchy.l1dcaches0.overallMissRate::processor.cores0.core.data     0.021924                       # miss rate for overall accesses (Ratio)
board.cache_hierarchy.l1dcaches0.overallMissRate::total     0.021924                       # miss rate for overall accesses (Ratio)
board.cache_hierarchy.l1dcaches0.demandAvgMissLatency::processor.cores0.core.data 51645.094061                       # average overall miss latency in ticks ((Tick/Count))
board.cache_hierarchy.l1dcaches0.demandAvgMissLatency::total 51645.094061                       # average overall miss latency in ticks ((Tick/Count))
board.cache_hierarchy.l1dcaches0.overallAvgMissLatency::processor.cores0.core.data 51645.094061                       # average overall miss latency ((Tick/Count))
board.cache_hierarchy.l1dcaches0.overallAvgMissLatency::total 51645.094061                       # average overall miss latency ((Tick/Count))
board.cache_hierarchy.l1dcaches0.blockedCycles::no_mshrs            0                       # number of cycles access was blocked (Cycle)
board.cache_hierarchy.l1dcaches0.blockedCycles::no_targets            0                       # number of cycles access was blocked (Cycle)
board.cache_hierarchy.l1dcaches0.blockedCauses::no_mshrs            0                       # number of times access was blocked (Count)
board.cache_hierarchy.l1dcaches0.blockedCauses::no_targets            0                       # number of times access was blocked (Count)
board.cache_hierarchy.l1dcaches0.avgBlocked::no_mshrs          nan                       # average number of cycles each access was blocked ((Cycle/Count))
board.cache_hierarchy.l1dcaches0.avgBlocked::no_targets          nan                       # average number of cycles each access was blocked ((Cycle/Count))
board.cache_hierarchy.l1dcaches0.writebacks::writebacks         3102                       # number of writebacks (Count)
board.cache_hierarchy.l1dcaches0.writebacks::total         3102                       # number of writebacks (Count)
board.cache_hierarchy.l1dcaches0.demandMshrHits::processor.cores0.core.data           33                       # number of demand (read+write) MSHR hits (Count)
board.cache_hierarchy.l1dcaches0.demandMshrHits::total           33                       # number of demand (read+write) MSHR hits (Count)
board.cache_hierarchy.l1dcaches0.overallMshrHits::processor.cores0.core.data           33                       # number of overall MSHR hits (Count)
board.cache_hierarchy.l1dcaches0.overallMshrHits::total           33                       # number of overall MSHR hits (Count)
board.cache_hierarchy.l1dcaches0.demandMshrMisses::processor.cores0.core.data        16233                       # number of demand (read+write) MSHR misses (Count)
board.cache_hierarchy.l1dcaches0.demandMshrMisses::total        16233                       # number of demand (read+write) MSHR misses (Count)
board.cache_hierarchy.l1dcaches0.overallMshrMisses::cache_hierarchy.l1dcaches0.prefetcher         1400                       # number of overall MSHR misses (Count)
board.cache_hierarchy.l1dcaches0.overallMshrMisses::processor.cores0.core.data        16233                       # number of overall MSHR misses (Count)
board.cache_hierarchy.l1dcaches0.overallMshrMisses::total        17633                       # number of overall MSHR misses (Count)
board.cache_hierarchy.l1dcaches0.demandMshrMissLatency::processor.cores0.core.data    833681151                       # number of demand (read+write) MSHR miss ticks (Tick)
board.cache_hierarchy.l1dcaches0.demandMshrMissLatency::total    833681151                       # number of demand (read+write) MSHR miss ticks (Tick)
board.cache_hierarchy.l1dcaches0.overallMshrMissLatency::cache_hierarchy.l1dcaches0.prefetcher     83296476                       # number of overall MSHR miss ticks (Tick)
board.cache_hierarchy.l1dcaches0.overallMshrMissLatency::processor.cores0.core.data    833681151                       # number of overall MSHR miss ticks (Tick)
board.cache_hierarchy.l1dcaches0.overallMshrMissLatency::total    916977627                       # number of overall MSHR miss ticks (Tick)
board.cache_hierarchy.l1dcaches0.demandMshrMissRate::processor.cores0.core.data     0.021880                       # mshr miss ratio for demand accesses (Ratio)
board.cache_hierarchy.l1dcaches0.demandMshrMissRate::total     0.021880                       # mshr miss ratio for demand accesses (Ratio)
board.cache_hierarchy.l1dcaches0.overallMshrMissRate::cache_hierarchy.l1dcaches0.prefetcher          inf                       # mshr miss ratio for overall accesses (Ratio)
board.cache_hierarchy.l1dcaches0.overallMshrMissRate::processor.cores0.core.data     0.021880                       # mshr miss ratio for overall accesses (Ratio)
board.cache_hierarchy.l1dcaches0.overallMshrMissRate::total     0.023767                       # mshr miss ratio for overall accesses (Ratio)
board.cache_hierarchy.l1dcaches0.demandAvgMshrMissLatency::processor.cores0.core.data 51357.182961                       # average overall mshr miss latency ((Tick/Count))
board.cache_hierarchy.l1dcaches0.demandAvgMshrMissLatency::total 51357.182961                       # average overall mshr miss latency ((Tick/Count))
board.cache_hierarchy.l1dcaches0.overallAvgMshrMissLatency::cache_hierarchy.l1dcaches0.prefetcher 59497.482857                       # average overall mshr miss latency ((Tick/Count))
board.cache_hierarchy.l1dcaches0.overallAvgMshrMissLatency::processor.cores0.core.data 51357.182961                       # average overall mshr miss latency ((Tick/Count))
board.cache_hierarchy.l1dcaches0.overallAvgMshrMissLatency::total 52003.494981                       # average overall mshr miss latency ((Tick/Count))
board.cache_hierarchy.l1dcaches0.replacements        17078                       # number of replacements (Count)
board.cache_hierarchy.l1dcaches0.HardPFReq.mshrMisses::cache_hierarchy.l1dcaches0.prefetcher         1400                       # number of HardPFReq MSHR misses (Count)
board.cache_hierarchy.l1dcaches0.HardPFReq.mshrMisses::total         1400                       # number of HardPFReq MSHR misses (Count)
board.cache_hierarchy.l1dcaches0.HardPFReq.mshrMissLatency::cache_hierarchy.l1dcaches0.prefetcher     83296476                       # number of HardPFReq MSHR miss ticks (Tick)
board.cache_hierarchy.l1dcaches0.HardPFReq.mshrMissLatency::total     83296476                       # number of HardPFReq MSHR miss ticks (Tick)
board.cache_hierarchy.l1dcaches0.HardPFReq.mshrMissRate::cache_hierarchy.l1dcaches0.prefetcher          inf                       # mshr miss rate for HardPFReq accesses (Ratio)
board.cache_hierarchy.l1dcaches0.HardPFReq.mshrMissRate::total          inf                       # mshr miss rate for HardPFReq accesses (Ratio)
board.cache_hierarchy.l1dcaches0.HardPFReq.avgMshrMissLatency::cache_hierarchy.l1dcaches0.prefetcher 59497.482857                       # average HardPFReq mshr miss latency ((Tick/Count))
board.cache_hierarchy.l1dcaches0.HardPFReq.avgMshrMissLatency::total 59497.482857                       # average HardPFReq mshr miss latency ((Tick/Count))
board.cache_hierarchy.l1dcaches0.LockedRMWReadReq.hits::processor.cores0.core.data          300                       # number of LockedRMWReadReq hits (Count)
board.cache_hierarchy.l1dcaches0.LockedRMWReadReq.hits::total          300                       # number of LockedRMWReadReq hits (Count)
board.cache_hierarchy.l1dcaches0.LockedRMWReadReq.misses::processor.cores0.core.data           11                       # number of LockedRMWReadReq misses (Count)
board.cache_hierarchy.l1dcaches0.LockedRMWReadReq.misses::total           11                       # number of LockedRMWReadReq misses (Count)
board.cache_hierarchy.l1dcaches0.LockedRMWReadReq.missLatency::processor.cores0.core.data       292707                       # number of LockedRMWReadReq miss ticks (Tick)
board.cache_hierarchy.l1dcaches0.LockedRMWReadReq.missLatency::total       292707                       # number of LockedRMWReadReq miss ticks (Tick)
board.cache_hierarchy.l1dcaches0.LockedRMWReadReq.accesses::processor.cores0.core.data          311                       # number of LockedRMWReadReq accesses(hits+misses) (Count)
board.cache_hierarchy.l1dcaches0.LockedRMWReadReq.accesses::total          311                       # number of LockedRMWReadReq accesses(hits+misses) (Count)
board.cache_hierarchy.l1dcaches0.LockedRMWReadReq.missRate::processor.cores0.core.data     0.035370                       # miss rate for LockedRMWReadReq accesses (Ratio)
board.cache_hierarchy.l1dcaches0.LockedRMWReadReq.missRate::total     0.035370                       # miss rate for LockedRMWReadReq accesses (Ratio)
board.cache_hierarchy.l1dcaches0.LockedRMWReadReq.avgMissLatency::processor.cores0.core.data 26609.727273                       # average LockedRMWReadReq miss latency ((Tick/Count))
board.cache_hierarchy.l1dcaches0.LockedRMWReadReq.avgMissLatency::total 26609.727273                       # average LockedRMWReadReq miss latency ((Tick/Count))
board.cache_hierarchy.l1dcaches0.LockedRMWReadReq.mshrMisses::processor.cores0.core.data           11                       # number of LockedRMWReadReq MSHR misses (Count)
board.cache_hierarchy.l1dcaches0.LockedRMWReadReq.mshrMisses::total           11                       # number of LockedRMWReadReq MSHR misses (Count)
board.cache_hierarchy.l1dcaches0.LockedRMWReadReq.mshrMissLatency::processor.cores0.core.data       681651                       # number of LockedRMWReadReq MSHR miss ticks (Tick)
board.cache_hierarchy.l1dcaches0.LockedRMWReadReq.mshrMissLatency::total       681651                       # number of LockedRMWReadReq MSHR miss ticks (Tick)
board.cache_hierarchy.l1dcaches0.LockedRMWReadReq.mshrMissRate::processor.cores0.core.data     0.035370                       # mshr miss rate for LockedRMWReadReq accesses (Ratio)
board.cache_hierarchy.l1dcaches0.LockedRMWReadReq.mshrMissRate::total     0.035370                       # mshr miss rate for LockedRMWReadReq accesses (Ratio)
board.cache_hierarchy.l1dcaches0.LockedRMWReadReq.avgMshrMissLatency::processor.cores0.core.data 61968.272727                       # average LockedRMWReadReq mshr miss latency ((Tick/Count))
board.cache_hierarchy.l1dcaches0.LockedRMWReadReq.avgMshrMissLatency::total 61968.272727                       # average LockedRMWReadReq mshr miss latency ((Tick/Count))
board.cache_hierarchy.l1dcaches0.LockedRMWWriteReq.hits::processor.cores0.core.data          311                       # number of LockedRMWWriteReq hits (Count)
board.cache_hierarchy.l1dcaches0.LockedRMWWriteReq.hits::total          311                       # number of LockedRMWWriteReq hits (Count)
board.cache_hierarchy.l1dcaches0.LockedRMWWriteReq.accesses::processor.cores0.core.data          311                       # number of LockedRMWWriteReq accesses(hits+misses) (Count)
board.cache_hierarchy.l1dcaches0.LockedRMWWriteReq.accesses::total          311                       # number of LockedRMWWriteReq accesses(hits+misses) (Count)
board.cache_hierarchy.l1dcaches0.ReadReq.hits::processor.cores0.core.data       520826                       # number of ReadReq hits (Count)
board.cache_hierarchy.l1dcaches0.ReadReq.hits::total       520826                       # number of ReadReq hits (Count)
board.cache_hierarchy.l1dcaches0.ReadReq.misses::processor.cores0.core.data        13886                       # number of ReadReq misses (Count)
board.cache_hierarchy.l1dcaches0.ReadReq.misses::total        13886                       # number of ReadReq misses (Count)
board.cache_hierarchy.l1dcaches0.ReadReq.missLatency::processor.cores0.core.data    720837441                       # number of ReadReq miss ticks (Tick)
board.cache_hierarchy.l1dcaches0.ReadReq.missLatency::total    720837441                       # number of ReadReq miss ticks (Tick)
board.cache_hierarchy.l1dcaches0.ReadReq.accesses::processor.cores0.core.data       534712                       # number of ReadReq accesses(hits+misses) (Count)
board.cache_hierarchy.l1dcaches0.ReadReq.accesses::total       534712                       # number of ReadReq accesses(hits+misses) (Count)
board.cache_hierarchy.l1dcaches0.ReadReq.missRate::processor.cores0.core.data     0.025969                       # miss rate for ReadReq accesses (Ratio)
board.cache_hierarchy.l1dcaches0.ReadReq.missRate::total     0.025969                       # miss rate for ReadReq accesses (Ratio)
board.cache_hierarchy.l1dcaches0.ReadReq.avgMissLatency::processor.cores0.core.data 51911.093259                       # average ReadReq miss latency ((Tick/Count))
board.cache_hierarchy.l1dcaches0.ReadReq.avgMissLatency::total 51911.093259                       # average ReadReq miss latency ((Tick/Count))
board.cache_hierarchy.l1dcaches0.ReadReq.mshrHits::processor.cores0.core.data            6                       # number of ReadReq MSHR hits (Count)
board.cache_hierarchy.l1dcaches0.ReadReq.mshrHits::total            6                       # number of ReadReq MSHR hits (Count)
board.cache_hierarchy.l1dcaches0.ReadReq.mshrMisses::processor.cores0.core.data        13880                       # number of ReadReq MSHR misses (Count)
board.cache_hierarchy.l1dcaches0.ReadReq.mshrMisses::total        13880                       # number of ReadReq MSHR misses (Count)
board.cache_hierarchy.l1dcaches0.ReadReq.mshrMissLatency::processor.cores0.core.data    716122494                       # number of ReadReq MSHR miss ticks (Tick)
board.cache_hierarchy.l1dcaches0.ReadReq.mshrMissLatency::total    716122494                       # number of ReadReq MSHR miss ticks (Tick)
board.cache_hierarchy.l1dcaches0.ReadReq.mshrMissRate::processor.cores0.core.data     0.025958                       # mshr miss rate for ReadReq accesses (Ratio)
board.cache_hierarchy.l1dcaches0.ReadReq.mshrMissRate::total     0.025958                       # mshr miss rate for ReadReq accesses (Ratio)
board.cache_hierarchy.l1dcaches0.ReadReq.avgMshrMissLatency::processor.cores0.core.data 51593.839625                       # average ReadReq mshr miss latency ((Tick/Count))
board.cache_hierarchy.l1dcaches0.ReadReq.avgMshrMissLatency::total 51593.839625                       # average ReadReq mshr miss latency ((Tick/Count))
board.cache_hierarchy.l1dcaches0.WriteReq.hits::processor.cores0.core.data       204831                       # number of WriteReq hits (Count)
board.cache_hierarchy.l1dcaches0.WriteReq.hits::total       204831                       # number of WriteReq hits (Count)
board.cache_hierarchy.l1dcaches0.WriteReq.misses::processor.cores0.core.data         2380                       # number of WriteReq misses (Count)
board.cache_hierarchy.l1dcaches0.WriteReq.misses::total         2380                       # number of WriteReq misses (Count)
board.cache_hierarchy.l1dcaches0.WriteReq.missLatency::processor.cores0.core.data    119221659                       # number of WriteReq miss ticks (Tick)
board.cache_hierarchy.l1dcaches0.WriteReq.missLatency::total    119221659                       # number of WriteReq miss ticks (Tick)
board.cache_hierarchy.l1dcaches0.WriteReq.accesses::processor.cores0.core.data       207211                       # number of WriteReq accesses(hits+misses) (Count)
board.cache_hierarchy.l1dcaches0.WriteReq.accesses::total       207211                       # number of WriteReq accesses(hits+misses) (Count)
board.cache_hierarchy.l1dcaches0.WriteReq.missRate::processor.cores0.core.data     0.011486                       # miss rate for WriteReq accesses (Ratio)
board.cache_hierarchy.l1dcaches0.WriteReq.missRate::total     0.011486                       # miss rate for WriteReq accesses (Ratio)
board.cache_hierarchy.l1dcaches0.WriteReq.avgMissLatency::processor.cores0.core.data 50093.134034                       # average WriteReq miss latency ((Tick/Count))
board.cache_hierarchy.l1dcaches0.WriteReq.avgMissLatency::total 50093.134034                       # average WriteReq miss latency ((Tick/Count))
board.cache_hierarchy.l1dcaches0.WriteReq.mshrHits::processor.cores0.core.data           27                       # number of WriteReq MSHR hits (Count)
board.cache_hierarchy.l1dcaches0.WriteReq.mshrHits::total           27                       # number of WriteReq MSHR hits (Count)
board.cache_hierarchy.l1dcaches0.WriteReq.mshrMisses::processor.cores0.core.data         2353                       # number of WriteReq MSHR misses (Count)
board.cache_hierarchy.l1dcaches0.WriteReq.mshrMisses::total         2353                       # number of WriteReq MSHR misses (Count)
board.cache_hierarchy.l1dcaches0.WriteReq.mshrMissLatency::processor.cores0.core.data    117558657                       # number of WriteReq MSHR miss ticks (Tick)
board.cache_hierarchy.l1dcaches0.WriteReq.mshrMissLatency::total    117558657                       # number of WriteReq MSHR miss ticks (Tick)
board.cache_hierarchy.l1dcaches0.WriteReq.mshrMissRate::processor.cores0.core.data     0.011356                       # mshr miss rate for WriteReq accesses (Ratio)
board.cache_hierarchy.l1dcaches0.WriteReq.mshrMissRate::total     0.011356                       # mshr miss rate for WriteReq accesses (Ratio)
board.cache_hierarchy.l1dcaches0.WriteReq.avgMshrMissLatency::processor.cores0.core.data 49961.180195                       # average WriteReq mshr miss latency ((Tick/Count))
board.cache_hierarchy.l1dcaches0.WriteReq.avgMshrMissLatency::total 49961.180195                       # average WriteReq mshr miss latency ((Tick/Count))
board.cache_hierarchy.l1dcaches0.power_state.pwrStateResidencyTicks::UNDEFINED   2285734977                       # Cumulative time (in ticks) in various power states (Tick)
board.cache_hierarchy.l1dcaches0.prefetcher.demandMshrMisses        16233                       # demands not covered by prefetchs (Count)
board.cache_hierarchy.l1dcaches0.prefetcher.pfIssued         1625                       # number of hwpf issued (Count)
board.cache_hierarchy.l1dcaches0.prefetcher.pfUnused           71                       # number of HardPF blocks evicted w/o reference (Count)
board.cache_hierarchy.l1dcaches0.prefetcher.pfUseful         1287                       # number of useful prefetch (Count)
board.cache_hierarchy.l1dcaches0.prefetcher.pfUsefulButMiss            0                       # number of hit on prefetch but cache block is not in an usable state (Count)
board.cache_hierarchy.l1dcaches0.prefetcher.accuracy     0.792000                       # accuracy of the prefetcher (Count)
board.cache_hierarchy.l1dcaches0.prefetcher.coverage     0.073459                       # coverage brought by this prefetcher (Count)
board.cache_hierarchy.l1dcaches0.prefetcher.pfHitInCache          185                       # number of prefetches hitting in cache (Count)
board.cache_hierarchy.l1dcaches0.prefetcher.pfHitInMSHR           40                       # number of prefetches hitting in a MSHR (Count)
board.cache_hierarchy.l1dcaches0.prefetcher.pfHitInWB            0                       # number of prefetches hit in the Write Buffer (Count)
board.cache_hierarchy.l1dcaches0.prefetcher.pfLate          225                       # number of late prefetches (hitting in cache, MSHR or WB) (Count)
board.cache_hierarchy.l1dcaches0.prefetcher.pfIdentified         1625                       # number of prefetch candidates identified (Count)
board.cache_hierarchy.l1dcaches0.prefetcher.pfBufferHit            0                       # number of redundant prefetches already in prefetch queue (Count)
board.cache_hierarchy.l1dcaches0.prefetcher.pfInCache            0                       # number of redundant prefetches already in cache/mshr dropped (Count)
board.cache_hierarchy.l1dcaches0.prefetcher.pfRemovedDemand            0                       # number of prefetches dropped due to a demand for the same address (Count)
board.cache_hierarchy.l1dcaches0.prefetcher.pfRemovedFull            0                       # number of prefetches dropped due to prefetch queue size (Count)
board.cache_hierarchy.l1dcaches0.prefetcher.pfSpanPage          423                       # number of prefetches that crossed the page (Count)
board.cache_hierarchy.l1dcaches0.prefetcher.pfUsefulSpanPage            0                       # number of prefetches that is useful and crossed the page (Count)
board.cache_hierarchy.l1dcaches0.prefetcher.power_state.pwrStateResidencyTicks::UNDEFINED   2285734977                       # Cumulative time (in ticks) in various power states (Tick)
board.cache_hierarchy.l1dcaches0.tags.tagsInUse   504.470756                       # Average ticks per tags in use ((Tick/Count))
board.cache_hierarchy.l1dcaches0.tags.totalRefs       743912                       # Total number of references to valid blocks. (Count)
board.cache_hierarchy.l1dcaches0.tags.sampledRefs        17629                       # Sample count of references to valid blocks. (Count)
board.cache_hierarchy.l1dcaches0.tags.avgRefs    42.198196                       # Average number of references to valid blocks. ((Count/Count))
board.cache_hierarchy.l1dcaches0.tags.warmupTick       132201                       # The tick when the warmup percentage was hit. (Tick)
board.cache_hierarchy.l1dcaches0.tags.occupancies::cache_hierarchy.l1dcaches0.prefetcher    28.226093                       # Average occupied blocks per tick, per requestor ((Count/Tick))
board.cache_hierarchy.l1dcaches0.tags.occupancies::processor.cores0.core.data   476.244663                       # Average occupied blocks per tick, per requestor ((Count/Tick))
board.cache_hierarchy.l1dcaches0.tags.avgOccs::cache_hierarchy.l1dcaches0.prefetcher     0.055129                       # Average percentage of cache occupancy ((Ratio/Tick))
board.cache_hierarchy.l1dcaches0.tags.avgOccs::processor.cores0.core.data     0.930165                       # Average percentage of cache occupancy ((Ratio/Tick))
board.cache_hierarchy.l1dcaches0.tags.avgOccs::total     0.985294                       # Average percentage of cache occupancy ((Ratio/Tick))
board.cache_hierarchy.l1dcaches0.tags.occupanciesTaskId::1022           16                       # Occupied blocks per task id (Count)
board.cache_hierarchy.l1dcaches0.tags.occupanciesTaskId::1024          492                       # Occupied blocks per task id (Count)
board.cache_hierarchy.l1dcaches0.tags.ageTaskId_1022::0            3                       # Occupied blocks per task id, per block age (Count)
board.cache_hierarchy.l1dcaches0.tags.ageTaskId_1022::1           12                       # Occupied blocks per task id, per block age (Count)
board.cache_hierarchy.l1dcaches0.tags.ageTaskId_1022::2            1                       # Occupied blocks per task id, per block age (Count)
board.cache_hierarchy.l1dcaches0.tags.ageTaskId_1024::0           58                       # Occupied blocks per task id, per block age (Count)
board.cache_hierarchy.l1dcaches0.tags.ageTaskId_1024::1          269                       # Occupied blocks per task id, per block age (Count)
board.cache_hierarchy.l1dcaches0.tags.ageTaskId_1024::2          165                       # Occupied blocks per task id, per block age (Count)
board.cache_hierarchy.l1dcaches0.tags.ratioOccsTaskId::1022     0.031250                       # Ratio of occupied blocks and all blocks, per task id (Ratio)
board.cache_hierarchy.l1dcaches0.tags.ratioOccsTaskId::1024     0.960938                       # Ratio of occupied blocks and all blocks, per task id (Ratio)
board.cache_hierarchy.l1dcaches0.tags.tagAccesses      5957989                       # Number of tag accesses (Count)
board.cache_hierarchy.l1dcaches0.tags.dataAccesses      5957989                       # Number of data accesses (Count)
board.cache_hierarchy.l1dcaches0.tags.power_state.pwrStateResidencyTicks::UNDEFINED   2285734977                       # Cumulative time (in ticks) in various power states (Tick)
board.cache_hierarchy.l1dcaches1.demandHits::processor.cores1.core.data         4430                       # number of demand (read+write) hits (Count)
board.cache_hierarchy.l1dcaches1.demandHits::total         4430                       # number of demand (read+write) hits (Count)
board.cache_hierarchy.l1dcaches1.overallHits::processor.cores1.core.data         4430                       # number of overall hits (Count)
board.cache_hierarchy.l1dcaches1.overallHits::total         4430                       # number of overall hits (Count)
board.cache_hierarchy.l1dcaches1.demandMisses::processor.cores1.core.data          291                       # number of demand (read+write) misses (Count)
board.cache_hierarchy.l1dcaches1.demandMisses::total          291                       # number of demand (read+write) misses (Count)
board.cache_hierarchy.l1dcaches1.overallMisses::processor.cores1.core.data          291                       # number of overall misses (Count)
board.cache_hierarchy.l1dcaches1.overallMisses::total          291                       # number of overall misses (Count)
board.cache_hierarchy.l1dcaches1.demandMissLatency::processor.cores1.core.data     15692292                       # number of demand (read+write) miss ticks (Tick)
board.cache_hierarchy.l1dcaches1.demandMissLatency::total     15692292                       # number of demand (read+write) miss ticks (Tick)
board.cache_hierarchy.l1dcaches1.overallMissLatency::processor.cores1.core.data     15692292                       # number of overall miss ticks (Tick)
board.cache_hierarchy.l1dcaches1.overallMissLatency::total     15692292                       # number of overall miss ticks (Tick)
board.cache_hierarchy.l1dcaches1.demandAccesses::processor.cores1.core.data         4721                       # number of demand (read+write) accesses (Count)
board.cache_hierarchy.l1dcaches1.demandAccesses::total         4721                       # number of demand (read+write) accesses (Count)
board.cache_hierarchy.l1dcaches1.overallAccesses::processor.cores1.core.data         4721                       # number of overall (read+write) accesses (Count)
board.cache_hierarchy.l1dcaches1.overallAccesses::total         4721                       # number of overall (read+write) accesses (Count)
board.cache_hierarchy.l1dcaches1.demandMissRate::processor.cores1.core.data     0.061639                       # miss rate for demand accesses (Ratio)
board.cache_hierarchy.l1dcaches1.demandMissRate::total     0.061639                       # miss rate for demand accesses (Ratio)
board.cache_hierarchy.l1dcaches1.overallMissRate::processor.cores1.core.data     0.061639                       # miss rate for overall accesses (Ratio)
board.cache_hierarchy.l1dcaches1.overallMissRate::total     0.061639                       # miss rate for overall accesses (Ratio)
board.cache_hierarchy.l1dcaches1.demandAvgMissLatency::processor.cores1.core.data 53925.402062                       # average overall miss latency in ticks ((Tick/Count))
board.cache_hierarchy.l1dcaches1.demandAvgMissLatency::total 53925.402062                       # average overall miss latency in ticks ((Tick/Count))
board.cache_hierarchy.l1dcaches1.overallAvgMissLatency::processor.cores1.core.data 53925.402062                       # average overall miss latency ((Tick/Count))
board.cache_hierarchy.l1dcaches1.overallAvgMissLatency::total 53925.402062                       # average overall miss latency ((Tick/Count))
board.cache_hierarchy.l1dcaches1.blockedCycles::no_mshrs            0                       # number of cycles access was blocked (Cycle)
board.cache_hierarchy.l1dcaches1.blockedCycles::no_targets            0                       # number of cycles access was blocked (Cycle)
board.cache_hierarchy.l1dcaches1.blockedCauses::no_mshrs            0                       # number of times access was blocked (Count)
board.cache_hierarchy.l1dcaches1.blockedCauses::no_targets            0                       # number of times access was blocked (Count)
board.cache_hierarchy.l1dcaches1.avgBlocked::no_mshrs          nan                       # average number of cycles each access was blocked ((Cycle/Count))
board.cache_hierarchy.l1dcaches1.avgBlocked::no_targets          nan                       # average number of cycles each access was blocked ((Cycle/Count))
board.cache_hierarchy.l1dcaches1.writebacks::writebacks            1                       # number of writebacks (Count)
board.cache_hierarchy.l1dcaches1.writebacks::total            1                       # number of writebacks (Count)
board.cache_hierarchy.l1dcaches1.demandMshrHits::processor.cores1.core.data            6                       # number of demand (read+write) MSHR hits (Count)
board.cache_hierarchy.l1dcaches1.demandMshrHits::total            6                       # number of demand (read+write) MSHR hits (Count)
board.cache_hierarchy.l1dcaches1.overallMshrHits::processor.cores1.core.data            6                       # number of overall MSHR hits (Count)
board.cache_hierarchy.l1dcaches1.overallMshrHits::total            6                       # number of overall MSHR hits (Count)
board.cache_hierarchy.l1dcaches1.demandMshrMisses::processor.cores1.core.data          285                       # number of demand (read+write) MSHR misses (Count)
board.cache_hierarchy.l1dcaches1.demandMshrMisses::total          285                       # number of demand (read+write) MSHR misses (Count)
board.cache_hierarchy.l1dcaches1.overallMshrMisses::cache_hierarchy.l1dcaches1.prefetcher           41                       # number of overall MSHR misses (Count)
board.cache_hierarchy.l1dcaches1.overallMshrMisses::processor.cores1.core.data          285                       # number of overall MSHR misses (Count)
board.cache_hierarchy.l1dcaches1.overallMshrMisses::total          326                       # number of overall MSHR misses (Count)
board.cache_hierarchy.l1dcaches1.demandMshrMissLatency::processor.cores1.core.data     15445539                       # number of demand (read+write) MSHR miss ticks (Tick)
board.cache_hierarchy.l1dcaches1.demandMshrMissLatency::total     15445539                       # number of demand (read+write) MSHR miss ticks (Tick)
board.cache_hierarchy.l1dcaches1.overallMshrMissLatency::cache_hierarchy.l1dcaches1.prefetcher      1902710                       # number of overall MSHR miss ticks (Tick)
board.cache_hierarchy.l1dcaches1.overallMshrMissLatency::processor.cores1.core.data     15445539                       # number of overall MSHR miss ticks (Tick)
board.cache_hierarchy.l1dcaches1.overallMshrMissLatency::total     17348249                       # number of overall MSHR miss ticks (Tick)
board.cache_hierarchy.l1dcaches1.demandMshrMissRate::processor.cores1.core.data     0.060369                       # mshr miss ratio for demand accesses (Ratio)
board.cache_hierarchy.l1dcaches1.demandMshrMissRate::total     0.060369                       # mshr miss ratio for demand accesses (Ratio)
board.cache_hierarchy.l1dcaches1.overallMshrMissRate::cache_hierarchy.l1dcaches1.prefetcher          inf                       # mshr miss ratio for overall accesses (Ratio)
board.cache_hierarchy.l1dcaches1.overallMshrMissRate::processor.cores1.core.data     0.060369                       # mshr miss ratio for overall accesses (Ratio)
board.cache_hierarchy.l1dcaches1.overallMshrMissRate::total     0.069053                       # mshr miss ratio for overall accesses (Ratio)
board.cache_hierarchy.l1dcaches1.demandAvgMshrMissLatency::processor.cores1.core.data 54194.873684                       # average overall mshr miss latency ((Tick/Count))
board.cache_hierarchy.l1dcaches1.demandAvgMshrMissLatency::total 54194.873684                       # average overall mshr miss latency ((Tick/Count))
board.cache_hierarchy.l1dcaches1.overallAvgMshrMissLatency::cache_hierarchy.l1dcaches1.prefetcher 46407.560976                       # average overall mshr miss latency ((Tick/Count))
board.cache_hierarchy.l1dcaches1.overallAvgMshrMissLatency::processor.cores1.core.data 54194.873684                       # average overall mshr miss latency ((Tick/Count))
board.cache_hierarchy.l1dcaches1.overallAvgMshrMissLatency::total 53215.487730                       # average overall mshr miss latency ((Tick/Count))
board.cache_hierarchy.l1dcaches1.replacements            5                       # number of replacements (Count)
board.cache_hierarchy.l1dcaches1.HardPFReq.mshrMisses::cache_hierarchy.l1dcaches1.prefetcher           41                       # number of HardPFReq MSHR misses (Count)
board.cache_hierarchy.l1dcaches1.HardPFReq.mshrMisses::total           41                       # number of HardPFReq MSHR misses (Count)
board.cache_hierarchy.l1dcaches1.HardPFReq.mshrMissLatency::cache_hierarchy.l1dcaches1.prefetcher      1902710                       # number of HardPFReq MSHR miss ticks (Tick)
board.cache_hierarchy.l1dcaches1.HardPFReq.mshrMissLatency::total      1902710                       # number of HardPFReq MSHR miss ticks (Tick)
board.cache_hierarchy.l1dcaches1.HardPFReq.mshrMissRate::cache_hierarchy.l1dcaches1.prefetcher          inf                       # mshr miss rate for HardPFReq accesses (Ratio)
board.cache_hierarchy.l1dcaches1.HardPFReq.mshrMissRate::total          inf                       # mshr miss rate for HardPFReq accesses (Ratio)
board.cache_hierarchy.l1dcaches1.HardPFReq.avgMshrMissLatency::cache_hierarchy.l1dcaches1.prefetcher 46407.560976                       # average HardPFReq mshr miss latency ((Tick/Count))
board.cache_hierarchy.l1dcaches1.HardPFReq.avgMshrMissLatency::total 46407.560976                       # average HardPFReq mshr miss latency ((Tick/Count))
board.cache_hierarchy.l1dcaches1.LockedRMWReadReq.hits::processor.cores1.core.data           16                       # number of LockedRMWReadReq hits (Count)
board.cache_hierarchy.l1dcaches1.LockedRMWReadReq.hits::total           16                       # number of LockedRMWReadReq hits (Count)
board.cache_hierarchy.l1dcaches1.LockedRMWReadReq.misses::processor.cores1.core.data            8                       # number of LockedRMWReadReq misses (Count)
board.cache_hierarchy.l1dcaches1.LockedRMWReadReq.misses::total            8                       # number of LockedRMWReadReq misses (Count)
board.cache_hierarchy.l1dcaches1.LockedRMWReadReq.missLatency::processor.cores1.core.data        83916                       # number of LockedRMWReadReq miss ticks (Tick)
board.cache_hierarchy.l1dcaches1.LockedRMWReadReq.missLatency::total        83916                       # number of LockedRMWReadReq miss ticks (Tick)
board.cache_hierarchy.l1dcaches1.LockedRMWReadReq.accesses::processor.cores1.core.data           24                       # number of LockedRMWReadReq accesses(hits+misses) (Count)
board.cache_hierarchy.l1dcaches1.LockedRMWReadReq.accesses::total           24                       # number of LockedRMWReadReq accesses(hits+misses) (Count)
board.cache_hierarchy.l1dcaches1.LockedRMWReadReq.missRate::processor.cores1.core.data     0.333333                       # miss rate for LockedRMWReadReq accesses (Ratio)
board.cache_hierarchy.l1dcaches1.LockedRMWReadReq.missRate::total     0.333333                       # miss rate for LockedRMWReadReq accesses (Ratio)
board.cache_hierarchy.l1dcaches1.LockedRMWReadReq.avgMissLatency::processor.cores1.core.data 10489.500000                       # average LockedRMWReadReq miss latency ((Tick/Count))
board.cache_hierarchy.l1dcaches1.LockedRMWReadReq.avgMissLatency::total 10489.500000                       # average LockedRMWReadReq miss latency ((Tick/Count))
board.cache_hierarchy.l1dcaches1.LockedRMWReadReq.mshrMisses::processor.cores1.core.data            8                       # number of LockedRMWReadReq MSHR misses (Count)
board.cache_hierarchy.l1dcaches1.LockedRMWReadReq.mshrMisses::total            8                       # number of LockedRMWReadReq MSHR misses (Count)
board.cache_hierarchy.l1dcaches1.LockedRMWReadReq.mshrMissLatency::processor.cores1.core.data       170496                       # number of LockedRMWReadReq MSHR miss ticks (Tick)
board.cache_hierarchy.l1dcaches1.LockedRMWReadReq.mshrMissLatency::total       170496                       # number of LockedRMWReadReq MSHR miss ticks (Tick)
board.cache_hierarchy.l1dcaches1.LockedRMWReadReq.mshrMissRate::processor.cores1.core.data     0.333333                       # mshr miss rate for LockedRMWReadReq accesses (Ratio)
board.cache_hierarchy.l1dcaches1.LockedRMWReadReq.mshrMissRate::total     0.333333                       # mshr miss rate for LockedRMWReadReq accesses (Ratio)
board.cache_hierarchy.l1dcaches1.LockedRMWReadReq.avgMshrMissLatency::processor.cores1.core.data        21312                       # average LockedRMWReadReq mshr miss latency ((Tick/Count))
board.cache_hierarchy.l1dcaches1.LockedRMWReadReq.avgMshrMissLatency::total        21312                       # average LockedRMWReadReq mshr miss latency ((Tick/Count))
board.cache_hierarchy.l1dcaches1.LockedRMWWriteReq.hits::processor.cores1.core.data           24                       # number of LockedRMWWriteReq hits (Count)
board.cache_hierarchy.l1dcaches1.LockedRMWWriteReq.hits::total           24                       # number of LockedRMWWriteReq hits (Count)
board.cache_hierarchy.l1dcaches1.LockedRMWWriteReq.accesses::processor.cores1.core.data           24                       # number of LockedRMWWriteReq accesses(hits+misses) (Count)
board.cache_hierarchy.l1dcaches1.LockedRMWWriteReq.accesses::total           24                       # number of LockedRMWWriteReq accesses(hits+misses) (Count)
board.cache_hierarchy.l1dcaches1.ReadReq.hits::processor.cores1.core.data         2667                       # number of ReadReq hits (Count)
board.cache_hierarchy.l1dcaches1.ReadReq.hits::total         2667                       # number of ReadReq hits (Count)
board.cache_hierarchy.l1dcaches1.ReadReq.misses::processor.cores1.core.data          214                       # number of ReadReq misses (Count)
board.cache_hierarchy.l1dcaches1.ReadReq.misses::total          214                       # number of ReadReq misses (Count)
board.cache_hierarchy.l1dcaches1.ReadReq.missLatency::processor.cores1.core.data     13309677                       # number of ReadReq miss ticks (Tick)
board.cache_hierarchy.l1dcaches1.ReadReq.missLatency::total     13309677                       # number of ReadReq miss ticks (Tick)
board.cache_hierarchy.l1dcaches1.ReadReq.accesses::processor.cores1.core.data         2881                       # number of ReadReq accesses(hits+misses) (Count)
board.cache_hierarchy.l1dcaches1.ReadReq.accesses::total         2881                       # number of ReadReq accesses(hits+misses) (Count)
board.cache_hierarchy.l1dcaches1.ReadReq.missRate::processor.cores1.core.data     0.074280                       # miss rate for ReadReq accesses (Ratio)
board.cache_hierarchy.l1dcaches1.ReadReq.missRate::total     0.074280                       # miss rate for ReadReq accesses (Ratio)
board.cache_hierarchy.l1dcaches1.ReadReq.avgMissLatency::processor.cores1.core.data 62194.752336                       # average ReadReq miss latency ((Tick/Count))
board.cache_hierarchy.l1dcaches1.ReadReq.avgMissLatency::total 62194.752336                       # average ReadReq miss latency ((Tick/Count))
board.cache_hierarchy.l1dcaches1.ReadReq.mshrMisses::processor.cores1.core.data          214                       # number of ReadReq MSHR misses (Count)
board.cache_hierarchy.l1dcaches1.ReadReq.mshrMisses::total          214                       # number of ReadReq MSHR misses (Count)
board.cache_hierarchy.l1dcaches1.ReadReq.mshrMissLatency::processor.cores1.core.data     13238415                       # number of ReadReq MSHR miss ticks (Tick)
board.cache_hierarchy.l1dcaches1.ReadReq.mshrMissLatency::total     13238415                       # number of ReadReq MSHR miss ticks (Tick)
board.cache_hierarchy.l1dcaches1.ReadReq.mshrMissRate::processor.cores1.core.data     0.074280                       # mshr miss rate for ReadReq accesses (Ratio)
board.cache_hierarchy.l1dcaches1.ReadReq.mshrMissRate::total     0.074280                       # mshr miss rate for ReadReq accesses (Ratio)
board.cache_hierarchy.l1dcaches1.ReadReq.avgMshrMissLatency::processor.cores1.core.data 61861.752336                       # average ReadReq mshr miss latency ((Tick/Count))
board.cache_hierarchy.l1dcaches1.ReadReq.avgMshrMissLatency::total 61861.752336                       # average ReadReq mshr miss latency ((Tick/Count))
board.cache_hierarchy.l1dcaches1.WriteReq.hits::processor.cores1.core.data         1763                       # number of WriteReq hits (Count)
board.cache_hierarchy.l1dcaches1.WriteReq.hits::total         1763                       # number of WriteReq hits (Count)
board.cache_hierarchy.l1dcaches1.WriteReq.misses::processor.cores1.core.data           77                       # number of WriteReq misses (Count)
board.cache_hierarchy.l1dcaches1.WriteReq.misses::total           77                       # number of WriteReq misses (Count)
board.cache_hierarchy.l1dcaches1.WriteReq.missLatency::processor.cores1.core.data      2382615                       # number of WriteReq miss ticks (Tick)
board.cache_hierarchy.l1dcaches1.WriteReq.missLatency::total      2382615                       # number of WriteReq miss ticks (Tick)
board.cache_hierarchy.l1dcaches1.WriteReq.accesses::processor.cores1.core.data         1840                       # number of WriteReq accesses(hits+misses) (Count)
board.cache_hierarchy.l1dcaches1.WriteReq.accesses::total         1840                       # number of WriteReq accesses(hits+misses) (Count)
board.cache_hierarchy.l1dcaches1.WriteReq.missRate::processor.cores1.core.data     0.041848                       # miss rate for WriteReq accesses (Ratio)
board.cache_hierarchy.l1dcaches1.WriteReq.missRate::total     0.041848                       # miss rate for WriteReq accesses (Ratio)
board.cache_hierarchy.l1dcaches1.WriteReq.avgMissLatency::processor.cores1.core.data 30943.051948                       # average WriteReq miss latency ((Tick/Count))
board.cache_hierarchy.l1dcaches1.WriteReq.avgMissLatency::total 30943.051948                       # average WriteReq miss latency ((Tick/Count))
board.cache_hierarchy.l1dcaches1.WriteReq.mshrHits::processor.cores1.core.data            6                       # number of WriteReq MSHR hits (Count)
board.cache_hierarchy.l1dcaches1.WriteReq.mshrHits::total            6                       # number of WriteReq MSHR hits (Count)
board.cache_hierarchy.l1dcaches1.WriteReq.mshrMisses::processor.cores1.core.data           71                       # number of WriteReq MSHR misses (Count)
board.cache_hierarchy.l1dcaches1.WriteReq.mshrMisses::total           71                       # number of WriteReq MSHR misses (Count)
board.cache_hierarchy.l1dcaches1.WriteReq.mshrMissLatency::processor.cores1.core.data      2207124                       # number of WriteReq MSHR miss ticks (Tick)
board.cache_hierarchy.l1dcaches1.WriteReq.mshrMissLatency::total      2207124                       # number of WriteReq MSHR miss ticks (Tick)
board.cache_hierarchy.l1dcaches1.WriteReq.mshrMissRate::processor.cores1.core.data     0.038587                       # mshr miss rate for WriteReq accesses (Ratio)
board.cache_hierarchy.l1dcaches1.WriteReq.mshrMissRate::total     0.038587                       # mshr miss rate for WriteReq accesses (Ratio)
board.cache_hierarchy.l1dcaches1.WriteReq.avgMshrMissLatency::processor.cores1.core.data 31086.253521                       # average WriteReq mshr miss latency ((Tick/Count))
board.cache_hierarchy.l1dcaches1.WriteReq.avgMshrMissLatency::total 31086.253521                       # average WriteReq mshr miss latency ((Tick/Count))
board.cache_hierarchy.l1dcaches1.power_state.pwrStateResidencyTicks::UNDEFINED   2285734977                       # Cumulative time (in ticks) in various power states (Tick)
board.cache_hierarchy.l1dcaches1.prefetcher.demandMshrMisses          285                       # demands not covered by prefetchs (Count)
board.cache_hierarchy.l1dcaches1.prefetcher.pfIssued           70                       # number of hwpf issued (Count)
board.cache_hierarchy.l1dcaches1.prefetcher.pfUnused            1                       # number of HardPF blocks evicted w/o reference (Count)
board.cache_hierarchy.l1dcaches1.prefetcher.pfUseful           35                       # number of useful prefetch (Count)
board.cache_hierarchy.l1dcaches1.prefetcher.pfUsefulButMiss            5                       # number of hit on prefetch but cache block is not in an usable state (Count)
board.cache_hierarchy.l1dcaches1.prefetcher.accuracy     0.500000                       # accuracy of the prefetcher (Count)
board.cache_hierarchy.l1dcaches1.prefetcher.coverage     0.109375                       # coverage brought by this prefetcher (Count)
board.cache_hierarchy.l1dcaches1.prefetcher.pfHitInCache           26                       # number of prefetches hitting in cache (Count)
board.cache_hierarchy.l1dcaches1.prefetcher.pfHitInMSHR            3                       # number of prefetches hitting in a MSHR (Count)
board.cache_hierarchy.l1dcaches1.prefetcher.pfHitInWB            0                       # number of prefetches hit in the Write Buffer (Count)
board.cache_hierarchy.l1dcaches1.prefetcher.pfLate           29                       # number of late prefetches (hitting in cache, MSHR or WB) (Count)
board.cache_hierarchy.l1dcaches1.prefetcher.pfIdentified           70                       # number of prefetch candidates identified (Count)
board.cache_hierarchy.l1dcaches1.prefetcher.pfBufferHit            0                       # number of redundant prefetches already in prefetch queue (Count)
board.cache_hierarchy.l1dcaches1.prefetcher.pfInCache            0                       # number of redundant prefetches already in cache/mshr dropped (Count)
board.cache_hierarchy.l1dcaches1.prefetcher.pfRemovedDemand            0                       # number of prefetches dropped due to a demand for the same address (Count)
board.cache_hierarchy.l1dcaches1.prefetcher.pfRemovedFull            0                       # number of prefetches dropped due to prefetch queue size (Count)
board.cache_hierarchy.l1dcaches1.prefetcher.pfSpanPage            2                       # number of prefetches that crossed the page (Count)
board.cache_hierarchy.l1dcaches1.prefetcher.pfUsefulSpanPage            0                       # number of prefetches that is useful and crossed the page (Count)
board.cache_hierarchy.l1dcaches1.prefetcher.power_state.pwrStateResidencyTicks::UNDEFINED   2285734977                       # Cumulative time (in ticks) in various power states (Tick)
board.cache_hierarchy.l1dcaches1.tags.tagsInUse     5.749692                       # Average ticks per tags in use ((Tick/Count))
board.cache_hierarchy.l1dcaches1.tags.totalRefs         4804                       # Total number of references to valid blocks. (Count)
board.cache_hierarchy.l1dcaches1.tags.sampledRefs          305                       # Sample count of references to valid blocks. (Count)
board.cache_hierarchy.l1dcaches1.tags.avgRefs    15.750820                       # Average number of references to valid blocks. ((Count/Count))
board.cache_hierarchy.l1dcaches1.tags.warmupTick   2221655454                       # The tick when the warmup percentage was hit. (Tick)
board.cache_hierarchy.l1dcaches1.tags.occupancies::cache_hierarchy.l1dcaches1.prefetcher     0.689263                       # Average occupied blocks per tick, per requestor ((Count/Tick))
board.cache_hierarchy.l1dcaches1.tags.occupancies::processor.cores1.core.data     5.060429                       # Average occupied blocks per tick, per requestor ((Count/Tick))
board.cache_hierarchy.l1dcaches1.tags.avgOccs::cache_hierarchy.l1dcaches1.prefetcher     0.001346                       # Average percentage of cache occupancy ((Ratio/Tick))
board.cache_hierarchy.l1dcaches1.tags.avgOccs::processor.cores1.core.data     0.009884                       # Average percentage of cache occupancy ((Ratio/Tick))
board.cache_hierarchy.l1dcaches1.tags.avgOccs::total     0.011230                       # Average percentage of cache occupancy ((Ratio/Tick))
board.cache_hierarchy.l1dcaches1.tags.occupanciesTaskId::1022           36                       # Occupied blocks per task id (Count)
board.cache_hierarchy.l1dcaches1.tags.occupanciesTaskId::1024          231                       # Occupied blocks per task id (Count)
board.cache_hierarchy.l1dcaches1.tags.ageTaskId_1022::1           36                       # Occupied blocks per task id, per block age (Count)
board.cache_hierarchy.l1dcaches1.tags.ageTaskId_1024::1          231                       # Occupied blocks per task id, per block age (Count)
board.cache_hierarchy.l1dcaches1.tags.ratioOccsTaskId::1022     0.070312                       # Ratio of occupied blocks and all blocks, per task id (Ratio)
board.cache_hierarchy.l1dcaches1.tags.ratioOccsTaskId::1024     0.451172                       # Ratio of occupied blocks and all blocks, per task id (Ratio)
board.cache_hierarchy.l1dcaches1.tags.tagAccesses        38457                       # Number of tag accesses (Count)
board.cache_hierarchy.l1dcaches1.tags.dataAccesses        38457                       # Number of data accesses (Count)
board.cache_hierarchy.l1dcaches1.tags.power_state.pwrStateResidencyTicks::UNDEFINED   2285734977                       # Cumulative time (in ticks) in various power states (Tick)
board.cache_hierarchy.l1dcaches2.demandHits::processor.cores2.core.data         3204                       # number of demand (read+write) hits (Count)
board.cache_hierarchy.l1dcaches2.demandHits::total         3204                       # number of demand (read+write) hits (Count)
board.cache_hierarchy.l1dcaches2.overallHits::processor.cores2.core.data         3204                       # number of overall hits (Count)
board.cache_hierarchy.l1dcaches2.overallHits::total         3204                       # number of overall hits (Count)
board.cache_hierarchy.l1dcaches2.demandMisses::processor.cores2.core.data          246                       # number of demand (read+write) misses (Count)
board.cache_hierarchy.l1dcaches2.demandMisses::total          246                       # number of demand (read+write) misses (Count)
board.cache_hierarchy.l1dcaches2.overallMisses::processor.cores2.core.data          246                       # number of overall misses (Count)
board.cache_hierarchy.l1dcaches2.overallMisses::total          246                       # number of overall misses (Count)
board.cache_hierarchy.l1dcaches2.demandMissLatency::processor.cores2.core.data     12804516                       # number of demand (read+write) miss ticks (Tick)
board.cache_hierarchy.l1dcaches2.demandMissLatency::total     12804516                       # number of demand (read+write) miss ticks (Tick)
board.cache_hierarchy.l1dcaches2.overallMissLatency::processor.cores2.core.data     12804516                       # number of overall miss ticks (Tick)
board.cache_hierarchy.l1dcaches2.overallMissLatency::total     12804516                       # number of overall miss ticks (Tick)
board.cache_hierarchy.l1dcaches2.demandAccesses::processor.cores2.core.data         3450                       # number of demand (read+write) accesses (Count)
board.cache_hierarchy.l1dcaches2.demandAccesses::total         3450                       # number of demand (read+write) accesses (Count)
board.cache_hierarchy.l1dcaches2.overallAccesses::processor.cores2.core.data         3450                       # number of overall (read+write) accesses (Count)
board.cache_hierarchy.l1dcaches2.overallAccesses::total         3450                       # number of overall (read+write) accesses (Count)
board.cache_hierarchy.l1dcaches2.demandMissRate::processor.cores2.core.data     0.071304                       # miss rate for demand accesses (Ratio)
board.cache_hierarchy.l1dcaches2.demandMissRate::total     0.071304                       # miss rate for demand accesses (Ratio)
board.cache_hierarchy.l1dcaches2.overallMissRate::processor.cores2.core.data     0.071304                       # miss rate for overall accesses (Ratio)
board.cache_hierarchy.l1dcaches2.overallMissRate::total     0.071304                       # miss rate for overall accesses (Ratio)
board.cache_hierarchy.l1dcaches2.demandAvgMissLatency::processor.cores2.core.data 52050.878049                       # average overall miss latency in ticks ((Tick/Count))
board.cache_hierarchy.l1dcaches2.demandAvgMissLatency::total 52050.878049                       # average overall miss latency in ticks ((Tick/Count))
board.cache_hierarchy.l1dcaches2.overallAvgMissLatency::processor.cores2.core.data 52050.878049                       # average overall miss latency ((Tick/Count))
board.cache_hierarchy.l1dcaches2.overallAvgMissLatency::total 52050.878049                       # average overall miss latency ((Tick/Count))
board.cache_hierarchy.l1dcaches2.blockedCycles::no_mshrs            0                       # number of cycles access was blocked (Cycle)
board.cache_hierarchy.l1dcaches2.blockedCycles::no_targets            0                       # number of cycles access was blocked (Cycle)
board.cache_hierarchy.l1dcaches2.blockedCauses::no_mshrs            0                       # number of times access was blocked (Count)
board.cache_hierarchy.l1dcaches2.blockedCauses::no_targets            0                       # number of times access was blocked (Count)
board.cache_hierarchy.l1dcaches2.avgBlocked::no_mshrs          nan                       # average number of cycles each access was blocked ((Cycle/Count))
board.cache_hierarchy.l1dcaches2.avgBlocked::no_targets          nan                       # average number of cycles each access was blocked ((Cycle/Count))
board.cache_hierarchy.l1dcaches2.demandMshrHits::processor.cores2.core.data            6                       # number of demand (read+write) MSHR hits (Count)
board.cache_hierarchy.l1dcaches2.demandMshrHits::total            6                       # number of demand (read+write) MSHR hits (Count)
board.cache_hierarchy.l1dcaches2.overallMshrHits::processor.cores2.core.data            6                       # number of overall MSHR hits (Count)
board.cache_hierarchy.l1dcaches2.overallMshrHits::total            6                       # number of overall MSHR hits (Count)
board.cache_hierarchy.l1dcaches2.demandMshrMisses::processor.cores2.core.data          240                       # number of demand (read+write) MSHR misses (Count)
board.cache_hierarchy.l1dcaches2.demandMshrMisses::total          240                       # number of demand (read+write) MSHR misses (Count)
board.cache_hierarchy.l1dcaches2.overallMshrMisses::cache_hierarchy.l1dcaches2.prefetcher           43                       # number of overall MSHR misses (Count)
board.cache_hierarchy.l1dcaches2.overallMshrMisses::processor.cores2.core.data          240                       # number of overall MSHR misses (Count)
board.cache_hierarchy.l1dcaches2.overallMshrMisses::total          283                       # number of overall MSHR misses (Count)
board.cache_hierarchy.l1dcaches2.demandMshrMissLatency::processor.cores2.core.data     12576744                       # number of demand (read+write) MSHR miss ticks (Tick)
board.cache_hierarchy.l1dcaches2.demandMshrMissLatency::total     12576744                       # number of demand (read+write) MSHR miss ticks (Tick)
board.cache_hierarchy.l1dcaches2.overallMshrMissLatency::cache_hierarchy.l1dcaches2.prefetcher      1836768                       # number of overall MSHR miss ticks (Tick)
board.cache_hierarchy.l1dcaches2.overallMshrMissLatency::processor.cores2.core.data     12576744                       # number of overall MSHR miss ticks (Tick)
board.cache_hierarchy.l1dcaches2.overallMshrMissLatency::total     14413512                       # number of overall MSHR miss ticks (Tick)
board.cache_hierarchy.l1dcaches2.demandMshrMissRate::processor.cores2.core.data     0.069565                       # mshr miss ratio for demand accesses (Ratio)
board.cache_hierarchy.l1dcaches2.demandMshrMissRate::total     0.069565                       # mshr miss ratio for demand accesses (Ratio)
board.cache_hierarchy.l1dcaches2.overallMshrMissRate::cache_hierarchy.l1dcaches2.prefetcher          inf                       # mshr miss ratio for overall accesses (Ratio)
board.cache_hierarchy.l1dcaches2.overallMshrMissRate::processor.cores2.core.data     0.069565                       # mshr miss ratio for overall accesses (Ratio)
board.cache_hierarchy.l1dcaches2.overallMshrMissRate::total     0.082029                       # mshr miss ratio for overall accesses (Ratio)
board.cache_hierarchy.l1dcaches2.demandAvgMshrMissLatency::processor.cores2.core.data 52403.100000                       # average overall mshr miss latency ((Tick/Count))
board.cache_hierarchy.l1dcaches2.demandAvgMshrMissLatency::total 52403.100000                       # average overall mshr miss latency ((Tick/Count))
[...]
board.processor.cores2.core.exec_context.thread_0.statExecutedInstType::SimdSha1Hash            0      0.00%     74.10% # Class of executed instruction. (Count)
board.processor.cores2.core.exec_context.thread_0.statExecutedInstType::SimdSha1Hash2            0      0.00%     74.10% # Class of executed instruction. (Count)
board.processor.cores2.core.exec_context.thread_0.statExecutedInstType::SimdSha256Hash            0      0.00%     74.10% # Class of executed instruction. (Count)
board.processor.cores2.core.exec_context.thread_0.statExecutedInstType::SimdSha256Hash2            0      0.00%     74.10% # Class of executed instruction. (Count)
board.processor.cores2.core.exec_context.thread_0.statExecutedInstType::SimdShaSigma2            0      0.00%     74.10% # Class of executed instruction. (Count)
board.processor.cores2.core.exec_context.thread_0.statExecutedInstType::SimdShaSigma3            0      0.00%     74.10% # Class of executed instruction. (Count)
board.processor.cores2.core.exec_context.thread_0.statExecutedInstType::SimdPredAlu            0      0.00%     74.10% # Class of executed instruction. (Count)
board.processor.cores2.core.exec_context.thread_0.statExecutedInstType::MemRead         1897     14.05%     88.15% # Class of executed instruction. (Count)
board.processor.cores2.core.exec_context.thread_0.statExecutedInstType::MemWrite         1009      7.47%     95.62% # Class of executed instruction. (Count)
board.processor.cores2.core.exec_context.thread_0.statExecutedInstType::FloatMemRead          188      1.39%     97.02% # Class of executed instruction. (Count)
board.processor.cores2.core.exec_context.thread_0.statExecutedInstType::FloatMemWrite          403      2.98%    100.00% # Class of executed instruction. (Count)
board.processor.cores2.core.exec_context.thread_0.statExecutedInstType::IprAccess            0      0.00%    100.00% # Class of executed instruction. (Count)
board.processor.cores2.core.exec_context.thread_0.statExecutedInstType::InstPrefetch            0      0.00%    100.00% # Class of executed instruction. (Count)
board.processor.cores2.core.exec_context.thread_0.statExecutedInstType::total        13503                       # Class of executed instruction. (Count)
board.processor.cores2.core.interrupts.clk_domain.clock         5328                       # Clock period in ticks (Tick)
board.processor.cores2.core.mmu.dtb.rdAccesses         2085                       # TLB accesses on read requests (Count)
board.processor.cores2.core.mmu.dtb.wrAccesses         1412                       # TLB accesses on write requests (Count)
board.processor.cores2.core.mmu.dtb.rdMisses           98                       # TLB misses on read requests (Count)
board.processor.cores2.core.mmu.dtb.wrMisses            4                       # TLB misses on write requests (Count)
board.processor.cores2.core.mmu.dtb.walker.power_state.pwrStateResidencyTicks::UNDEFINED   2285734977                       # Cumulative time (in ticks) in various power states (Tick)
board.processor.cores2.core.mmu.itb.rdAccesses            0                       # TLB accesses on read requests (Count)
board.processor.cores2.core.mmu.itb.wrAccesses         9101                       # TLB accesses on write requests (Count)
board.processor.cores2.core.mmu.itb.rdMisses            0                       # TLB misses on read requests (Count)
board.processor.cores2.core.mmu.itb.wrMisses           59                       # TLB misses on write requests (Count)
board.processor.cores2.core.mmu.itb.walker.power_state.pwrStateResidencyTicks::UNDEFINED   2285734977                       # Cumulative time (in ticks) in various power states (Tick)
board.processor.cores2.core.power_state.pwrStateResidencyTicks::ON   2285734977                       # Cumulative time (in ticks) in various power states (Tick)
board.processor.cores2.core.thread_0.numInsts            0                       # Number of Instructions committed (Count)
board.processor.cores2.core.thread_0.numOps            0                       # Number of Ops committed (Count)
board.processor.cores2.core.thread_0.numMemRefs            0                       # Number of Memory References (Count)
board.processor.cores3.core.numCycles         6782144                       # Number of cpu cycles simulated (Cycle)
board.processor.cores3.core.numWorkItemsStarted            0                       # Number of work items this cpu started (Count)
board.processor.cores3.core.numWorkItemsCompleted            0                       # Number of work items this cpu completed (Count)
board.processor.cores3.core.exec_context.thread_0.numInsts         5145                       # Number of instructions committed (Count)
board.processor.cores3.core.exec_context.thread_0.numOps         9963                       # Number of ops (including micro ops) committed (Count)
board.processor.cores3.core.exec_context.thread_0.numIntAluAccesses         9429                       # Number of integer alu accesses (Count)
board.processor.cores3.core.exec_context.thread_0.numFpAluAccesses          947                       # Number of float alu accesses (Count)
board.processor.cores3.core.exec_context.thread_0.numVecAluAccesses            0                       # Number of vector alu accesses (Count)
board.processor.cores3.core.exec_context.thread_0.numCallsReturns          197                       # Number of times a function call or return occured (Count)
board.processor.cores3.core.exec_context.thread_0.numCondCtrlInsts          766                       # Number of instructions that are conditional controls (Count)
board.processor.cores3.core.exec_context.thread_0.numIntInsts         9429                       # Number of integer instructions (Count)
board.processor.cores3.core.exec_context.thread_0.numFpInsts          947                       # Number of float instructions (Count)
board.processor.cores3.core.exec_context.thread_0.numVecInsts            0                       # Number of vector instructions (Count)
board.processor.cores3.core.exec_context.thread_0.numIntRegReads        12230                       # Number of times the integer registers were read (Count)
board.processor.cores3.core.exec_context.thread_0.numIntRegWrites         6574                       # Number of times the integer registers were written (Count)
board.processor.cores3.core.exec_context.thread_0.numFpRegReads          945                       # Number of times the floating registers were read (Count)
board.processor.cores3.core.exec_context.thread_0.numFpRegWrites          572                       # Number of times the floating registers were written (Count)
board.processor.cores3.core.exec_context.thread_0.numVecRegReads            0                       # Number of times the vector registers were read (Count)
board.processor.cores3.core.exec_context.thread_0.numVecRegWrites            0                       # Number of times the vector registers were written (Count)
board.processor.cores3.core.exec_context.thread_0.numVecPredRegReads            0                       # Number of times the predicate registers were read (Count)
board.processor.cores3.core.exec_context.thread_0.numVecPredRegWrites            0                       # Number of times the predicate registers were written (Count)
board.processor.cores3.core.exec_context.thread_0.numCCRegReads         4715                       # Number of times the CC registers were read (Count)
board.processor.cores3.core.exec_context.thread_0.numCCRegWrites         3033                       # Number of times the CC registers were written (Count)
board.processor.cores3.core.exec_context.thread_0.numMiscRegReads         4410                       # Number of times the Misc registers were read (Count)
board.processor.cores3.core.exec_context.thread_0.numMiscRegWrites           18                       # Number of times the Misc registers were written (Count)
board.processor.cores3.core.exec_context.thread_0.numMemRefs         2568                       # Number of memory refs (Count)
board.processor.cores3.core.exec_context.thread_0.numLoadInsts         1473                       # Number of load instructions (Count)
board.processor.cores3.core.exec_context.thread_0.numStoreInsts         1095                       # Number of store instructions (Count)
board.processor.cores3.core.exec_context.thread_0.numIdleCycles 6697951.010392                       # Number of idle cycles (Cycle)
board.processor.cores3.core.exec_context.thread_0.numBusyCycles 84192.989608                       # Number of busy cycles (Cycle)
board.processor.cores3.core.exec_context.thread_0.notIdleFraction     0.012414                       # Percentage of non-idle cycles (Ratio)
board.processor.cores3.core.exec_context.thread_0.idleFraction     0.987586                       # Percentage of idle cycles (Ratio)
board.processor.cores3.core.exec_context.thread_0.numBranches         1014                       # Number of branches fetched (Count)
board.processor.cores3.core.exec_context.thread_0.statExecutedInstType::No_OpClass           61      0.61%      0.61% # Class of executed instruction. (Count)
board.processor.cores3.core.exec_context.thread_0.statExecutedInstType::IntAlu         6918     69.38%     69.99% # Class of executed instruction. (Count)
board.processor.cores3.core.exec_context.thread_0.statExecutedInstType::IntMult            0      0.00%     69.99% # Class of executed instruction. (Count)
board.processor.cores3.core.exec_context.thread_0.statExecutedInstType::IntDiv           30      0.30%     70.29% # Class of executed instruction. (Count)
board.processor.cores3.core.exec_context.thread_0.statExecutedInstType::FloatAdd          149      1.49%     71.79% # Class of executed instruction. (Count)
board.processor.cores3.core.exec_context.thread_0.statExecutedInstType::FloatCmp            0      0.00%     71.79% # Class of executed instruction. (Count)
board.processor.cores3.core.exec_context.thread_0.statExecutedInstType::FloatCvt           32      0.32%     72.11% # Class of executed instruction. (Count)
board.processor.cores3.core.exec_context.thread_0.statExecutedInstType::FloatMult            0      0.00%     72.11% # Class of executed instruction. (Count)
board.processor.cores3.core.exec_context.thread_0.statExecutedInstType::FloatMultAcc            0      0.00%     72.11% # Class of executed instruction. (Count)
board.processor.cores3.core.exec_context.thread_0.statExecutedInstType::FloatDiv            0      0.00%     72.11% # Class of executed instruction. (Count)
board.processor.cores3.core.exec_context.thread_0.statExecutedInstType::FloatMisc            0      0.00%     72.11% # Class of executed instruction. (Count)
board.processor.cores3.core.exec_context.thread_0.statExecutedInstType::FloatSqrt            0      0.00%     72.11% # Class of executed instruction. (Count)
board.processor.cores3.core.exec_context.thread_0.statExecutedInstType::SimdAdd           12      0.12%     72.23% # Class of executed instruction. (Count)
board.processor.cores3.core.exec_context.thread_0.statExecutedInstType::SimdAddAcc            0      0.00%     72.23% # Class of executed instruction. (Count)
board.processor.cores3.core.exec_context.thread_0.statExecutedInstType::SimdAlu           23      0.23%     72.46% # Class of executed instruction. (Count)
board.processor.cores3.core.exec_context.thread_0.statExecutedInstType::SimdCmp            0      0.00%     72.46% # Class of executed instruction. (Count)
board.processor.cores3.core.exec_context.thread_0.statExecutedInstType::SimdCvt           24      0.24%     72.70% # Class of executed instruction. (Count)
board.processor.cores3.core.exec_context.thread_0.statExecutedInstType::SimdMisc          144      1.44%     74.15% # Class of executed instruction. (Count)
board.processor.cores3.core.exec_context.thread_0.statExecutedInstType::SimdMult            0      0.00%     74.15% # Class of executed instruction. (Count)
board.processor.cores3.core.exec_context.thread_0.statExecutedInstType::SimdMultAcc            0      0.00%     74.15% # Class of executed instruction. (Count)
board.processor.cores3.core.exec_context.thread_0.statExecutedInstType::SimdShift           10      0.10%     74.25% # Class of executed instruction. (Count)
board.processor.cores3.core.exec_context.thread_0.statExecutedInstType::SimdShiftAcc            0      0.00%     74.25% # Class of executed instruction. (Count)
board.processor.cores3.core.exec_context.thread_0.statExecutedInstType::SimdDiv            0      0.00%     74.25% # Class of executed instruction. (Count)
board.processor.cores3.core.exec_context.thread_0.statExecutedInstType::SimdSqrt            0      0.00%     74.25% # Class of executed instruction. (Count)
board.processor.cores3.core.exec_context.thread_0.statExecutedInstType::SimdFloatAdd            0      0.00%     74.25% # Class of executed instruction. (Count)
board.processor.cores3.core.exec_context.thread_0.statExecutedInstType::SimdFloatAlu            0      0.00%     74.25% # Class of executed instruction. (Count)
board.processor.cores3.core.exec_context.thread_0.statExecutedInstType::SimdFloatCmp            0      0.00%     74.25% # Class of executed instruction. (Count)
board.processor.cores3.core.exec_context.thread_0.statExecutedInstType::SimdFloatCvt            0      0.00%     74.25% # Class of executed instruction. (Count)
board.processor.cores3.core.exec_context.thread_0.statExecutedInstType::SimdFloatDiv            0      0.00%     74.25% # Class of executed instruction. (Count)
board.processor.cores3.core.exec_context.thread_0.statExecutedInstType::SimdFloatMisc            0      0.00%     74.25% # Class of executed instruction. (Count)
board.processor.cores3.core.exec_context.thread_0.statExecutedInstType::SimdFloatMult            0      0.00%     74.25% # Class of executed instruction. (Count)
board.processor.cores3.core.exec_context.thread_0.statExecutedInstType::SimdFloatMultAcc            0      0.00%     74.25% # Class of executed instruction. (Count)
board.processor.cores3.core.exec_context.thread_0.statExecutedInstType::SimdFloatSqrt            0      0.00%     74.25% # Class of executed instruction. (Count)
board.processor.cores3.core.exec_context.thread_0.statExecutedInstType::SimdReduceAdd            0      0.00%     74.25% # Class of executed instruction. (Count)
board.processor.cores3.core.exec_context.thread_0.statExecutedInstType::SimdReduceAlu            0      0.00%     74.25% # Class of executed instruction. (Count)
board.processor.cores3.core.exec_context.thread_0.statExecutedInstType::SimdReduceCmp            0      0.00%     74.25% # Class of executed instruction. (Count)
board.processor.cores3.core.exec_context.thread_0.statExecutedInstType::SimdFloatReduceAdd            0      0.00%     74.25% # Class of executed instruction. (Count)
board.processor.cores3.core.exec_context.thread_0.statExecutedInstType::SimdFloatReduceCmp            0      0.00%     74.25% # Class of executed instruction. (Count)
board.processor.cores3.core.exec_context.thread_0.statExecutedInstType::SimdAes            0      0.00%     74.25% # Class of executed instruction. (Count)
board.processor.cores3.core.exec_context.thread_0.statExecutedInstType::SimdAesMix            0      0.00%     74.25% # Class of executed instruction. (Count)
board.processor.cores3.core.exec_context.thread_0.statExecutedInstType::SimdSha1Hash            0      0.00%     74.25% # Class of executed instruction. (Count)
board.processor.cores3.core.exec_context.thread_0.statExecutedInstType::SimdSha1Hash2            0      0.00%     74.25% # Class of executed instruction. (Count)
board.processor.cores3.core.exec_context.thread_0.statExecutedInstType::SimdSha256Hash            0      0.00%     74.25% # Class of executed instruction. (Count)
board.processor.cores3.core.exec_context.thread_0.statExecutedInstType::SimdSha256Hash2            0      0.00%     74.25% # Class of executed instruction. (Count)
board.processor.cores3.core.exec_context.thread_0.statExecutedInstType::SimdShaSigma2            0      0.00%     74.25% # Class of executed instruction. (Count)
board.processor.cores3.core.exec_context.thread_0.statExecutedInstType::SimdShaSigma3            0      0.00%     74.25% # Class of executed instruction. (Count)
board.processor.cores3.core.exec_context.thread_0.statExecutedInstType::SimdPredAlu            0      0.00%     74.25% # Class of executed instruction. (Count)
board.processor.cores3.core.exec_context.thread_0.statExecutedInstType::MemRead         1383     13.87%     88.12% # Class of executed instruction. (Count)
board.processor.cores3.core.exec_context.thread_0.statExecutedInstType::MemWrite          764      7.66%     95.78% # Class of executed instruction. (Count)
board.processor.cores3.core.exec_context.thread_0.statExecutedInstType::FloatMemRead           90      0.90%     96.68% # Class of executed instruction. (Count)
board.processor.cores3.core.exec_context.thread_0.statExecutedInstType::FloatMemWrite          331      3.32%    100.00% # Class of executed instruction. (Count)
board.processor.cores3.core.exec_context.thread_0.statExecutedInstType::IprAccess            0      0.00%    100.00% # Class of executed instruction. (Count)
board.processor.cores3.core.exec_context.thread_0.statExecutedInstType::InstPrefetch            0      0.00%    100.00% # Class of executed instruction. (Count)
board.processor.cores3.core.exec_context.thread_0.statExecutedInstType::total         9971                       # Class of executed instruction. (Count)
board.processor.cores3.core.interrupts.clk_domain.clock         5328                       # Clock period in ticks (Tick)
board.processor.cores3.core.mmu.dtb.rdAccesses         1473                       # TLB accesses on read requests (Count)
board.processor.cores3.core.mmu.dtb.wrAccesses         1095                       # TLB accesses on write requests (Count)
board.processor.cores3.core.mmu.dtb.rdMisses           79                       # TLB misses on read requests (Count)
board.processor.cores3.core.mmu.dtb.wrMisses            2                       # TLB misses on write requests (Count)
board.processor.cores3.core.mmu.dtb.walker.power_state.pwrStateResidencyTicks::UNDEFINED   2285734977                       # Cumulative time (in ticks) in various power states (Tick)
board.processor.cores3.core.mmu.itb.rdAccesses            0                       # TLB accesses on read requests (Count)
board.processor.cores3.core.mmu.itb.wrAccesses         6708                       # TLB accesses on write requests (Count)
board.processor.cores3.core.mmu.itb.rdMisses            0                       # TLB misses on read requests (Count)
board.processor.cores3.core.mmu.itb.wrMisses           53                       # TLB misses on write requests (Count)
board.processor.cores3.core.mmu.itb.walker.power_state.pwrStateResidencyTicks::UNDEFINED   2285734977                       # Cumulative time (in ticks) in various power states (Tick)
board.processor.cores3.core.power_state.pwrStateResidencyTicks::ON   2285734977                       # Cumulative time (in ticks) in various power states (Tick)
board.processor.cores3.core.thread_0.numInsts            0                       # Number of Instructions committed (Count)
board.processor.cores3.core.thread_0.numOps            0                       # Number of Ops committed (Count)
board.processor.cores3.core.thread_0.numMemRefs            0                       # Number of Memory References (Count)
board.workload.inst.arm                             0                       # number of arm instructions executed (Count)
board.workload.inst.quiesce                         0                       # number of quiesce instructions executed (Count)

---------- End Simulation Statistics   ----------
